geometry optimzed in LAMMPS
_audit_creation_date              2020-12-01 
_audit_creation_method            'lammps2cif' 
_symmetry_space_group_name_H-M    'P1' 
_symmetry_Int_Tables_number       1 
_symmetry_cell_setting            triclinic 
loop_ 
_symmetry_equiv_pos_as_xyz 
  x,y,z 
_cell_length_a                    53.60943178 
_cell_length_b                    52.93771004667149 
_cell_length_c                    38.87474961301416 
_cell_angle_alpha                 89.91076785414639 
_cell_angle_beta                  90.02443513158508 
_cell_angle_gamma                 89.97157058171013 
loop_ 
_atom_site_label 
_atom_site_type_symbol 
_atom_site_fract_x 
_atom_site_fract_y 
_atom_site_fract_z 
_atom_site_charge 
Fe1        Fe  0.82814808  0.77773250  0.30884946     1.65800
Fe2        Fe  0.87807886  0.79511210  0.35486763     1.73200
Fe3        Fe  0.85287136  0.83607755  0.29823278     1.54400
O4          O  0.85663176  0.81872161  0.25059870    -0.82300
O5          O  0.87702620  0.83132351  0.37553047    -0.80600
O6          O  0.82775823  0.78882014  0.25856843    -0.84800
O7          O  0.79981612  0.80291570  0.31853377    -0.79700
O8          O  0.89154735  0.84014556  0.30071780    -0.81400
O9          O  0.85172863  0.78529323  0.38963259    -0.84200
C10         C  0.79641771  0.82074293  0.29705472     0.96600
C11         C  0.84201390  0.80164304  0.23939847     1.04000
O12         O  0.85297598  0.80300933  0.32078263    -1.13200
O13         O  0.88259000  0.75789732  0.33854373    -0.75600
O14         O  0.85505647  0.75153045  0.29653326    -0.79100
O15         O  0.81410846  0.83596694  0.28978527    -0.79800
C16         C  0.87401137  0.74474443  0.31385278     0.95500
O17         O  0.82647837  0.76191814  0.35771147    -0.77700
O18         O  0.90604024  0.80406607  0.32228669    -0.82900
C19         C  0.86388584  0.85120052  0.37178852     0.98100
C20         C  0.90931066  0.82510740  0.30790404     1.04000
O21         O  0.84980220  0.85479420  0.34562220    -0.78600
C22         C  0.83734565  0.76664515  0.38599598     1.02300
Fe23       Fe  0.67849601  0.78008101  0.19204999     1.65800
Fe24       Fe  0.63087327  0.79941926  0.14224973     1.73200
Fe25       Fe  0.65851625  0.84091992  0.19495696     1.54400
O26         O  0.65179348  0.82600354  0.24366820    -0.82300
O27         O  0.63556690  0.83399524  0.11777229    -0.80600
O28         O  0.67951802  0.79452098  0.24084021    -0.84800
O29         O  0.70926003  0.80192673  0.18065570    -0.79700
O30         O  0.62059191  0.84880706  0.18970452    -0.81400
O31         O  0.65762319  0.78540960  0.11062335    -0.84200
C32         C  0.71377309  0.82128151  0.19912756     0.96600
C33         C  0.66449772  0.80832099  0.25746075     1.04000
O34         O  0.65599153  0.80680940  0.17626916    -1.13200
O35         O  0.62307144  0.76367551  0.16230338    -0.75600
O36         O  0.64914172  0.75678191  0.20597921    -0.79100
O37         O  0.69690823  0.83772185  0.20494814    -0.79800
C38         C  0.63040324  0.75046286  0.18780857     0.95500
O39         O  0.67928228  0.76075860  0.14545534    -0.77700
O40         O  0.60261668  0.81330974  0.17211333    -0.82900
C41         C  0.64996172  0.85306398  0.11998676     0.98100
C42         C  0.60130662  0.83552688  0.18384105     1.04000
O43         O  0.66405413  0.85688835  0.14608933    -0.78600
C44         C  0.66873035  0.76488712  0.11675598     1.02300
Fe45       Fe  0.31124655  0.77730657  0.43355489     1.65800
Fe46       Fe  0.35794020  0.79531387  0.38256972     1.73200
Fe47       Fe  0.33717381  0.83573712  0.44292230     1.54400
O48         O  0.29899213  0.84230745  0.44001504    -0.82300
O49         O  0.38726038  0.81713154  0.40010009    -0.80600
O50         O  0.28408998  0.80351578  0.44910059    -0.84800
O51         O  0.32513939  0.77800037  0.48129428    -0.79700
O52         O  0.34386177  0.85508641  0.39546482    -0.81400
O53         O  0.37204774  0.76526989  0.40987863    -0.84200
C54         C  0.33517186  0.81032832  0.01532535     0.96600
C55         C  0.28223833  0.82749003  0.45158530     1.04000
O56         O  0.33496761  0.80326986  0.41941755    -1.13200
O57         O  0.33267751  0.77185401  0.35885590    -0.75600
O58         O  0.29595369  0.77339620  0.38537099    -0.79100
O59         O  0.34980564  0.82808346  0.00561799    -0.79800
C60         C  0.30972028  0.76617820  0.36078717     0.95500
O61         O  0.33593080  0.74756979  0.42363633    -0.77700
O62         O  0.34484992  0.82534710  0.35452254    -0.82900
C63         C  0.39199868  0.82873144  0.42777506     0.98100
C64         C  0.34549903  0.84838765  0.36369898     1.04000
O65         O  0.37533838  0.83281875  0.45030055    -0.78600
C66         C  0.35956419  0.74647929  0.42065092     1.02300
Fe67       Fe  0.17866081  0.78318253  0.06940902     1.65800
Fe68       Fe  0.12735954  0.79583712  0.11804237     1.73200
Fe69       Fe  0.14188401  0.83348077  0.05057143     1.54400
O70         O  0.17940483  0.84030088  0.03952250    -0.82300
O71         O  0.09465489  0.79965652  0.09162883    -0.80600
O72         O  0.20261182  0.81417581  0.07112013    -0.84800
O73         O  0.17579911  0.78937693  0.01809777    -0.79700
O74         O  0.14241062  0.85778933  0.09350095    -0.81400
O75         O  0.12663938  0.75787067  0.10403283    -0.84200
C76         C  0.15507697  0.79850523  0.49817564     0.96600
C77         C  0.20058653  0.83133979  0.04799604     1.04000
O78         O  0.14908253  0.80420639  0.07947911    -1.13200
O79         O  0.15800688  0.79182916  0.14758760    -0.75600
O80         O  0.18573904  0.77056679  0.11946422    -0.79100
O81         O  0.13756129  0.81306336  0.50809392    -0.79800
C82         C  0.17038187  0.77192172  0.14406716     0.95500
O83         O  0.15605651  0.75189726  0.06391435    -0.77700
O84         O  0.12610180  0.83287836  0.13457644    -0.82900
C85         C  0.08809878  0.81602371  0.06979882     0.98100
C86         C  0.13364615  0.85428388  0.12384656     1.04000
O87         O  0.10347472  0.83047396  0.05472005    -0.78600
C88         C  0.13735697  0.74435014  0.08130627     1.02300
Fe89       Fe  0.33353677  0.72724102  0.19507411     1.65800
Fe90       Fe  0.36978896  0.69802664  0.13962693     1.73200
Fe91       Fe  0.33930975  0.66412185  0.20049309     1.54400
O92         O  0.33271463  0.68061531  0.25006183    -0.82300
O93         O  0.34721423  0.67380648  0.11300816    -0.80600
O94         O  0.35067149  0.71621072  0.23868383    -0.84800
O95         O  0.29993421  0.70957577  0.20824799    -0.79700
O96         O  0.37725319  0.65910202  0.21010800    -0.81400
O97         O  0.35220647  0.72867480  0.11819325    -0.84200
C98         C  0.28962337  0.68788866  0.20714007     0.96600
C99         C  0.33680243  0.70360277  0.25781502     1.04000
O100        O  0.34642726  0.69631660  0.17705007    -1.13200
O101        O  0.39380687  0.72279664  0.16464842    -0.75600
O102        O  0.36481782  0.74848325  0.18574362    -0.79100
O103        O  0.30092003  0.66876367  0.19421935    -0.79800
C104        C  0.38721087  0.74372968  0.17779470     0.95500
O105        O  0.31881963  0.73911723  0.14929764    -0.77700
O106        O  0.39077117  0.66820237  0.15734398    -0.82900
C107        C  0.34547071  0.65067212  0.12122943     0.98100
C108        C  0.39414238  0.65875726  0.18700085     1.04000
O109        O  0.34368173  0.64378116  0.15294382    -0.78600
C110        C  0.33338316  0.74261581  0.12400110     1.02300
Fe111      Fe  0.17007389  0.71915144  0.31030413     1.65800
Fe112      Fe  0.11934306  0.69878097  0.35347709     1.73200
Fe113      Fe  0.14919637  0.65959230  0.29944035     1.54400
O114        O  0.14342294  0.67737312  0.25190270    -0.82300
O115        O  0.12334443  0.66314374  0.37493677    -0.80600
O116        O  0.17122108  0.70843285  0.25968588    -0.84800
O117        O  0.19958865  0.69553743  0.32060220    -0.79700
O118        O  0.11142516  0.65119454  0.30297932    -0.81400
O119        O  0.14351733  0.71117122  0.38957957    -0.84200
C120        C  0.20442770  0.67809110  0.29923466     0.96600
C121        C  0.15629243  0.69605480  0.24087056     1.04000
O122        O  0.14617765  0.69266305  0.32124321    -1.13200
O123        O  0.11309107  0.73583249  0.33675716    -0.75600
O124        O  0.14252351  0.74478612  0.29816831    -0.79100
O125        O  0.18767403  0.66243025  0.29031122    -0.79800
C126        C  0.12302871  0.75072748  0.31490963     0.95500
O127        O  0.17050940  0.73413122  0.35937252    -0.77700
O128        O  0.09249180  0.68620934  0.32027665    -0.82900
C129        C  0.13908099  0.64512731  0.37329397     0.98100
C130        C  0.09182305  0.66380948  0.30914144     1.04000
O131        O  0.15397343  0.64220029  0.34774200    -0.78600
C132        C  0.15826624  0.72958423  0.38661460     1.02300
Fe133      Fe  0.96924571  0.42835149  0.44187197     1.65800
Fe134      Fe  0.95221778  0.38060475  0.49503901     1.73200
Fe135      Fe  0.91231524  0.40152646  0.43392835     1.54400
O136        O  0.91198944  0.44015358  0.42288540    -0.82300
O137        O  0.94034860  0.34864431  0.47010065    -0.80600
O138        O  0.94434518  0.45744321  0.44979671    -0.84800
O139        O  0.95709902  0.42742354  0.39204285    -0.79700
O140        O  0.89243347  0.40630723  0.48003868    -0.81400
O141        O  0.98779624  0.37390115  0.47612118    -0.84200
C142        C  0.94757974  0.40965522  0.37500580     0.96600
C143        C  0.92586596  0.45912917  0.42915110     1.04000
O144        O  0.94447160  0.40340612  0.45738838    -1.13200
O145        O  0.96430915  0.40409006  0.02091220    -0.75600
O146        O  0.98772932  0.43236528  0.48868441    -0.79100
O147        O  0.93109223  0.39498888  0.38756002    -0.79800
C148        C  0.98460640  0.41507747  0.01385474     0.95500
O149        O  0.99447140  0.40014896  0.43159524    -0.77700
O150        O  0.91534339  0.38267464  0.01338889    -0.82900
C151        C  0.92091289  0.34504841  0.45230976     0.98100
C152        C  0.89665628  0.39573495  0.50916578     1.04000
O153        O  0.90828521  0.36299325  0.43953847    -0.78600
C154        C  0.00084393  0.38189286  0.45100572     1.02300
Fe155      Fe  0.96681856  0.56449115  0.30512310     1.65800
Fe156      Fe  0.94970803  0.61146408  0.25155454     1.73200
Fe157      Fe  0.90765258  0.58805346  0.30668178     1.54400
O158        O  0.90854262  0.54979223  0.32073164    -0.82300
O159        O  0.93734143  0.64227225  0.27928355    -0.80600
O160        O  0.94302609  0.53468543  0.29734891    -0.84800
O161        O  0.95353792  0.56733810  0.35411866    -0.79700
O162        O  0.89117411  0.58131930  0.25837924    -0.81400
O163        O  0.98493030  0.61813116  0.26971154    -0.84200
C164        C  0.94080868  0.58418701  0.36893480     0.96600
C165        C  0.92461848  0.53221973  0.31763089     1.04000
O166        O  0.94144120  0.58787329  0.28755293    -1.13200
O167        O  0.96276373  0.58266192  0.22158741    -0.75600
O168        O  0.98411415  0.55877474  0.25840352    -0.79100
O169        O  0.92335141  0.59651021  0.35421585    -0.79800
C170        C  0.98006925  0.56702592  0.22835571     0.95500
O171        O  0.99236910  0.59322022  0.31476701    -0.77700
O172        O  0.91560579  0.60751211  0.22819516    -0.82900
C173        C  0.91549480  0.64510985  0.29111520     0.98100
C174        C  0.89592354  0.59439422  0.23134480     1.04000
O175        O  0.90172973  0.62635821  0.29846118    -0.78600
C176        C  0.99861827  0.61102508  0.29443641     1.02300
Fe177      Fe  0.52565267  0.57335982  0.19434997     1.65800
Fe178      Fe  0.54413751  0.62245504  0.24404035     1.73200
Fe179      Fe  0.58436897  0.59646390  0.18750865     1.54400
O180        O  0.58246326  0.55782084  0.17563443    -0.82300
O181        O  0.55756126  0.65232435  0.21516029    -0.80600
O182        O  0.54899547  0.54293620  0.20208417    -0.84800
O183        O  0.53745984  0.57443878  0.14450661    -0.79700
O184        O  0.60196543  0.59052712  0.23516824    -0.81400
O185        O  0.50845649  0.62973356  0.22549047    -0.84200
C186        C  0.55009863  0.58997065  0.12698845     0.96600
C187        C  0.56700398  0.53997285  0.18108702     1.04000
O188        O  0.55136524  0.59735008  0.20905972    -1.13200
O189        O  0.52985274  0.59550844  0.27614738    -0.75600
O190        O  0.50821829  0.57028037  0.24186559    -0.79100
O191        O  0.56748075  0.60352511  0.13985075    -0.79800
C192        C  0.51054377  0.58257929  0.26966468     0.95500
O193        O  0.50087728  0.60190050  0.18369469    -0.77700
O194        O  0.57882741  0.61718354  0.26681815    -0.82900
C195        C  0.57928560  0.65419835  0.20260632     0.98100
C196        C  0.59825985  0.60363790  0.26244276     1.04000
O197        O  0.59172468  0.63481319  0.19389552    -0.78600
C198        C  0.49455292  0.62074289  0.20192150     1.02300
Fe199      Fe  0.52939633  0.42355037  0.06232538     1.65800
Fe200      Fe  0.55215913  0.38136491  0.00589951     1.73200
Fe201      Fe  0.59048650  0.40680918  0.06606913     1.54400
O202        O  0.58559548  0.44527198  0.07825375    -0.82300
O203        O  0.56604160  0.35131082  0.03279154    -0.80600
O204        O  0.54859605  0.45709703  0.05741947    -0.84800
O205        O  0.54159558  0.42179318  0.11204809    -0.79700
O206        O  0.60819114  0.41464958  0.01924488    -0.81400
O207        O  0.51699930  0.37062516  0.02159760    -0.84200
C208        C  0.55798984  0.40966585  0.12862583     0.96600
C209        C  0.56798322  0.46148534  0.07553247     1.04000
O210        O  0.55753820  0.40421870  0.04443639    -1.13200
O211        O  0.53969512  0.40787061  0.47742676    -0.75600
O212        O  0.51164378  0.42711918  0.01484238    -0.79100
O213        O  0.57607688  0.39831508  0.11428128    -0.79800
C214        C  0.51978852  0.41989993  0.48373609     0.95500
O215        O  0.50921548  0.39098973  0.07054997    -0.77700
O216        O  0.58802901  0.38520789  0.48882824    -0.82900
C217        C  0.58612157  0.34935007  0.04963936     0.98100
C218        C  0.60564317  0.40239653  0.99117893     1.04000
O219        O  0.59856503  0.36852192  0.05952436    -0.78600
C220        C  0.50406444  0.37415499  0.04844430     1.02300
Fe221      Fe  0.82789722  0.21949431  0.44667132     1.65800
Fe222      Fe  0.87253300  0.19844935  0.39298938     1.73200
Fe223      Fe  0.84671794  0.15820762  0.45041489     1.54400
O224        O  0.85130952  0.17520982  0.99128200    -0.82300
O225        O  0.86648444  0.16377096  0.37022692    -0.80600
O226        O  0.82829944  0.20645057  0.49584114    -0.84800
O227        O  0.79587510  0.19864541  0.43909695    -0.79700
O228        O  0.88473702  0.15042890  0.44452198    -0.81400
O229        O  0.84496995  0.21333197  0.36296770    -0.84200
C230        C  0.79174801  0.17917657  0.45768485     0.96600
C231        C  0.83856457  0.19270747  0.00532647     1.04000
O232        O  0.84888743  0.19189088  0.42974254    -1.13200
O233        O  0.88154064  0.23406493  0.41078094    -0.75600
O234        O  0.85872821  0.24140279  0.45768356    -0.79100
O235        O  0.80834648  0.16202663  0.46162137    -0.79800
C236        C  0.87613174  0.24724658  0.43699267     0.95500
O237        O  0.82557239  0.23837785  0.39973920    -0.77700
O238        O  0.90205183  0.18441988  0.42072129    -0.82900
C239        C  0.85320722  0.14419235  0.37496013     0.98100
C240        C  0.90380651  0.16316208  0.43550238     1.04000
O241        O  0.84045044  0.14068579  0.40245990    -0.78600
C242        C  0.83475861  0.23421262  0.37022036     1.02300
Fe243      Fe  0.67277393  0.21700954  0.06409866     1.65800
Fe244      Fe  0.62405854  0.19889234  0.11288418     1.73200
Fe245      Fe  0.64793447  0.15883323  0.05449413     1.54400
O246        O  0.64771711  0.17431132  0.51473932    -0.82300
O247        O  0.62812461  0.16285913  0.13350801    -0.80600
O248        O  0.67129563  0.20575690  0.01373270    -0.84800
O249        O  0.70169459  0.19195978  0.07186734    -0.79700
O250        O  0.60976361  0.15232229  0.06222667    -0.81400
O251        O  0.65142178  0.21050169  0.14556626    -0.84200
C252        C  0.70455883  0.17446861  0.04973665     0.96600
C253        C  0.66009030  0.19258977  0.50169383     1.04000
O254        O  0.64830149  0.19160151  0.07757485    -1.13200
O255        O  0.61809369  0.23585126  0.09596184    -0.75600
O256        O  0.64553576  0.24310229  0.05384112    -0.79100
O257        O  0.68629477  0.16012890  0.04175483    -0.79800
C258        C  0.62713140  0.24977251  0.07225517     0.95500
O259        O  0.67590343  0.23367314  0.11248310    -0.77700
O260        O  0.59433697  0.18793559  0.08314089    -0.82900
C261        C  0.64154785  0.14326926  0.12841729     0.98100
C262        C  0.59134066  0.16600874  0.07104062     1.04000
O263        O  0.65426341  0.13986035  0.10090025    -0.78600
C264        C  0.66437261  0.23008350  0.14061311     1.02300
Fe265      Fe  0.03403096  0.07243759  0.44589452     1.65800
Fe266      Fe  0.05177379  0.12242415  0.49393274     1.73200
Fe267      Fe  0.09257435  0.09606274  0.43860214     1.54400
O268        O  0.09177141  0.05688147  0.42918708    -0.82300
O269        O  0.06384576  0.15222619  0.46399220    -0.80600
O270        O  0.05810315  0.04311317  0.45628396    -0.84800
O271        O  0.04609201  0.07217661  0.39590960    -0.79700
O272        O  0.11034063  0.09227387  0.48691563    -0.81400
O273        O  0.01573937  0.12828053  0.47557166    -0.84200
C274        C  0.05836572  0.08778084  0.37803552     0.96600
C275        C  0.07615854  0.03935732  0.43563995     1.04000
O276        O  0.05942292  0.09708800  0.45953058    -1.13200
O277        O  0.03266091  0.11591707  0.01503478    -0.75600
O278        O  0.01660015  0.07047640  0.49350195    -0.79100
O279        O  0.07588187  0.10135012  0.39038879    -0.79800
C280        C  0.02256188  0.09459294  0.01962244     0.95500
O281        O  0.00873023  0.10039989  0.43363943    -0.77700
O282        O  0.08554587  0.12740305  0.00501458    -0.82900
C283        C  0.08513590  0.15418052  0.45000108     0.98100
C284        C  0.10623516  0.10633551  0.51321760     1.04000
O285        O  0.09794164  0.13480112  0.44224459    -0.78600
C286        C  0.00211918  0.11928651  0.45168656     1.02300
Fe287      Fe  0.02470982  0.91876514  0.31844257     1.65800
Fe288      Fe  0.04961178  0.88492754  0.25517878     1.73200
Fe289      Fe  0.08694864  0.90841824  0.31717162     1.54400
O290        O  0.08427493  0.94790513  0.31873409    -0.82300
O291        O  0.07812809  0.85963123  0.26713125    -0.80600
O292        O  0.04443952  0.94982271  0.33534724    -0.84800
O293        O  0.03350195  0.89976555  0.36212973    -0.79700
O294        O  0.10492029  0.90741476  0.26788370    -0.81400
O295        O  0.02477310  0.86043581  0.27745858    -0.84200
C296        C  0.05222715  0.90462376  0.38060748     0.96600
C297        C  0.06629614  0.95917539  0.33422027     1.04000
O298        O  0.05377050  0.90458684  0.29666850    -1.13200
O299        O  0.02009245  0.90642724  0.23811189    -0.75600
O300        O  0.01283105  0.93772067  0.27504542    -0.79100
O301        O  0.07360160  0.90940157  0.36798709    -0.79800
C302        C  0.00840282  0.92617774  0.24710859     0.95500
O303        O  0.00207573  0.88905737  0.30559236    -0.77700
O304        O  0.07342462  0.90907875  0.23119275    -0.82900
C305        C  0.08808496  0.85367509  0.29570385     0.98100
C306        C  0.09658745  0.90805032  0.23690140     1.04000
O307        O  0.09011190  0.86940139  0.32026639    -0.78600
C308        C  0.00505478  0.86725577  0.29282111     1.02300
Fe309      Fe  0.17811398  0.28384174  0.43449868     1.65800
Fe310      Fe  0.12810869  0.30374160  0.38819356     1.73200
Fe311      Fe  0.15621406  0.34393121  0.44439179     1.54400
O312        O  0.14937830  0.31820306  0.98928094    -0.82300
O313        O  0.13575955  0.33774524  0.36354682    -0.80600
O314        O  0.17561024  0.29283538  0.48509161    -0.84800
O315        O  0.20833051  0.30762323  0.42967584    -0.79700
O316        O  0.11846388  0.35186414  0.44185520    -0.81400
O317        O  0.15134301  0.28547416  0.35504389    -0.84200
C318        C  0.21161363  0.32619211  0.44981248     0.96600
C319        C  0.16476295  0.30053514  0.99680358     1.04000
O320        O  0.15429480  0.31046611  0.42192066    -1.13200
O321        O  0.11791521  0.26933631  0.40945092    -0.75600
O322        O  0.15037638  0.25715270  0.44145104    -0.79100
O323        O  0.19448680  0.34238951  0.45457871    -0.79800
C324        C  0.12874180  0.25347941  0.42895060     0.95500
O325        O  0.18298495  0.26997858  0.38576291    -0.77700
O326        O  0.10039942  0.31948755  0.41669942    -0.82900
C327        C  0.14846826  0.35783036  0.36844167     0.98100
C328        C  0.09907680  0.34012398  0.43262162     1.04000
O329        O  0.16033594  0.36228555  0.39652431    -0.78600
C330        C  0.16879751  0.26973550  0.35974987     1.02300
Fe331      Fe  0.32056997  0.29068265  0.06778917     1.65800
Fe332      Fe  0.37124571  0.30776502  0.11504692     1.73200
Fe333      Fe  0.35281279  0.34458329  0.04920605     1.54400
O334        O  0.35502057  0.32390781  0.50140569    -0.82300
O335        O  0.37248191  0.34483151  0.13007856    -0.80600
O336        O  0.32325591  0.29593928  0.01606392    -0.84800
O337        O  0.29395401  0.31954736  0.06797932    -0.79700
O338        O  0.39120738  0.34420867  0.05300254    -0.81400
O339        O  0.34072158  0.30445627  0.14504815    -0.84200
C340        C  0.29466211  0.33755292  0.04589795     0.96600
C341        C  0.34048812  0.30695078  0.48961030     1.04000
O342        O  0.34841088  0.31426859  0.07711119    -1.13200
O343        O  0.37333831  0.26924526  0.10446866    -0.75600
O344        O  0.34504924  0.26040176  0.06407126    -0.79100
O345        O  0.31497642  0.34881106  0.03889555    -0.79800
C346        C  0.36352332  0.25414287  0.08289349     0.95500
O347        O  0.31493079  0.27930171  0.11872970    -0.77700
O348        O  0.40302643  0.31230622  0.08661654    -0.82900
C349        C  0.36303034  0.36578121  0.12116715     0.98100
C350        C  0.40794033  0.33029130  0.06622778     1.04000
O351        O  0.35139194  0.36878367  0.09259167    -0.78600
C352        C  0.32871981  0.28416895  0.14437195     1.02300
Fe353      Fe  0.01883717  0.58970833  0.05870535     1.65800
Fe354      Fe  0.04781766  0.62919694  0.00763601     1.73200
Fe355      Fe  0.08143138  0.59248307  0.06317005     1.54400
O356        O  0.06562942  0.58627427  0.11301073    -0.82300
O357        O  0.07525170  0.61714030  0.48042876    -0.80600
O358        O  0.03107235  0.60609932  0.10233618    -0.84800
O359        O  0.03479363  0.55469355  0.07153155    -0.79700
O360        O  0.08983830  0.62962738  0.07510873    -0.81400
O361        O  0.02139613  0.61719609  0.47718164    -0.84200
C362        C  0.05592386  0.54368115  0.07064581     0.96600
C363        C  0.04330216  0.59173536  0.12133499     1.04000
O364        O  0.04969869  0.60250147  0.04128584    -1.13200
O365        O  0.02429844  0.65227540  0.03721465    -0.75600
O366        O  0.99829594  0.62160635  0.05121390    -0.79100
O367        O  0.07458787  0.55413121  0.05583009    -0.79800
C368        C  0.00340222  0.64479032  0.04887449     0.95500
O369        O  0.00617959  0.57732098  0.01184932    -0.77700
O370        O  0.07820646  0.64864491  0.02660120    -0.82900
C371        C  0.09304274  0.60164434  0.98372867     0.98100
C372        C  0.09011459  0.64848149  0.05484982     1.04000
O373        O  0.10021250  0.59659289  0.01467459    -0.78600
C374        C  0.01068420  0.59590209  0.47484530     1.02300
Fe375      Fe  0.02835925  0.42744747  0.19036632     1.65800
Fe376      Fe  0.05242087  0.38175145  0.24089953     1.73200
Fe377      Fe  0.08897647  0.40961253  0.18134982     1.54400
O378        O  0.07191216  0.40187173  0.13426803    -0.82300
O379        O  0.08752600  0.38812314  0.26054595    -0.80600
O380        O  0.03874722  0.42716658  0.13981482    -0.84800
O381        O  0.04902836  0.46003922  0.19613512    -0.79700
O382        O  0.09797107  0.37130521  0.18661819    -0.81400
O383        O  0.03917406  0.40917949  0.27268208    -0.84200
C384        C  0.06685959  0.46455304  0.17523440     0.96600
C385        C  0.05307234  0.41350034  0.12192476     1.04000
O386        O  0.05665599  0.40637699  0.20433868    -1.13200
O387        O  0.01642440  0.37211750  0.22641177    -0.75600
O388        O  0.00636329  0.39623382  0.18132816    -0.79100
O389        O  0.08409091  0.44831382  0.17010809    -0.79800
C390        C  0.00200541  0.37805265  0.20178462     0.95500
O391        O  0.01228138  0.42906136  0.23929922    -0.77700
O392        O  0.06560947  0.35259029  0.21128197    -0.82900
C393        C  0.10599845  0.40258216  0.25511901     0.98100
C394        C  0.08653453  0.35142197  0.19614812     1.04000
O395        O  0.10779881  0.41639922  0.22810738    -0.78600
C396        C  0.01794304  0.41892000  0.26794351     1.02300
Fe397      Fe  0.97857097  0.91440358  0.06892720     1.65800
Fe398      Fe  0.95016532  0.87766815  0.01168049     1.73200
Fe399      Fe  0.91582978  0.90898039  0.07070157     1.54400
O400        O  0.93008248  0.91359559  0.12105957    -0.82300
O401        O  0.92617561  0.89410786  0.48279127    -0.80600
O402        O  0.96872223  0.89971444  0.11529021    -0.84800
O403        O  0.96133889  0.94821878  0.08138281    -0.79700
O404        O  0.90965080  0.87097716  0.07956876    -0.81400
O405        O  0.97945783  0.88707824  0.49259469    -0.84200
C406        C  0.93988065  0.95856757  0.08043284     0.96600
C407        C  0.95179768  0.90967023  0.13323398     1.04000
O408        O  0.94816886  0.90103741  0.04985997    -1.13200
O409        O  0.97324636  0.85314747  0.03786044    -0.75600
O410        O  0.99876441  0.88184333  0.06071128    -0.79100
O411        O  0.92128078  0.94774968  0.06596682    -0.79800
C412        C  0.99366592  0.85932457  0.05203377     0.95500
O413        O  0.99106198  0.92863292  0.02259872    -0.77700
O414        O  0.91977560  0.85656447  0.02763998    -0.82900
C415        C  0.90461186  0.90398154  0.99063778     0.98100
C416        C  0.90934796  0.85383672  0.05674039     1.04000
O417        O  0.89728865  0.90604862  0.02201690    -0.78600
C418        C  0.99249517  0.90688051  0.49620822     1.02300
Fe419      Fe  0.97394784  0.06641345  0.20009602     1.65800
Fe420      Fe  0.95572564  0.11392234  0.25231074     1.73200
Fe421      Fe  0.91729133  0.09363415  0.18921914     1.54400
O422        O  0.93754844  0.10015406  0.14408192    -0.82300
O423        O  0.92015670  0.10998595  0.27209258    -0.80600
O424        O  0.96335115  0.06760030  0.14944592    -0.84800
O425        O  0.94821408  0.03802318  0.20742953    -0.79700
O426        O  0.91382658  0.13229733  0.19463901    -0.81400
O427        O  0.96608971  0.08356190  0.28094693    -0.84200
C428        C  0.93071282  0.03599546  0.18531972     0.96600
C429        C  0.95448758  0.08568687  0.13224235     1.04000
O430        O  0.94889408  0.09157837  0.21406245    -1.13200
O431        O  0.99215884  0.12005968  0.23568664    -0.75600
O432        O  0.99988699  0.09441614  0.19123584    -0.79100
O433        O  0.91684662  0.05481499  0.17776104    -0.79800
C434        C  0.00612659  0.11237398  0.21125649     0.95500
O435        O  0.99113048  0.06205234  0.24783824    -0.77700
O436        O  0.94542619  0.14617675  0.22667424    -0.82900
C437        C  0.89958656  0.09960388  0.26387977     0.98100
C438        C  0.92659379  0.14998834  0.20774496     1.04000
O439        O  0.89597509  0.08909117  0.23453432    -0.78600
C440        C  0.98713901  0.07380045  0.27559762     1.02300
Fe441      Fe  0.81910954  0.72087477  0.06157542     1.65800
Fe442      Fe  0.86634736  0.70553394  0.11470880     1.73200
Fe443      Fe  0.85189919  0.66713164  0.04825014     1.54400
O444        O  0.81369335  0.66335521  0.03494912    -0.82300
O445        O  0.89961354  0.70025337  0.09001828    -0.80600
O446        O  0.79401565  0.69195148  0.06666358    -0.84800
O447        O  0.82273020  0.71220008  0.01060431    -0.79700
O448        O  0.84797699  0.64400175  0.09182529    -0.81400
O449        O  0.86912580  0.74342379  0.10030011    -0.84200
C450        C  0.83413362  0.70088492  0.50101431     0.96600
C451        C  0.79382000  0.67538612  0.04299891     1.04000
O452        O  0.84622097  0.69789799  0.07476649    -1.13200
O453        O  0.83463241  0.71118455  0.14193266    -0.75600
O454        O  0.81169037  0.73574814  0.10988633    -0.79100
O455        O  0.84941836  0.68443458  0.51223802    -0.79800
C456        C  0.82319940  0.73167475  0.13764471     0.95500
O457        O  0.84399924  0.75001980  0.05525763    -0.77700
O458        O  0.86558119  0.66840758  0.13220843    -0.82900
C459        C  0.90619768  0.68257805  0.07023957     0.98100
C460        C  0.85682370  0.64729554  0.12206942     1.04000
O461        O  0.89065132  0.66781731  0.05569301    -0.78600
C462        C  0.86120419  0.75718989  0.07560630     1.02300
Fe463      Fe  0.67769642  0.72441459  0.43827800     1.65800
Fe464      Fe  0.63192577  0.70656100  0.38369825     1.73200
Fe465      Fe  0.65109507  0.66673246  0.44648808     1.54400
O466        O  0.68941792  0.66614102  0.45786496    -0.82300
O467        O  0.59985642  0.69574425  0.40792660    -0.80600
O468        O  0.70668520  0.69927058  0.43152833    -0.84800
O469        O  0.67620121  0.71270548  0.48836183    -0.79700
O470        O  0.65580254  0.64579906  0.40076588    -0.81400
O471        O  0.62511644  0.74311527  0.40123790    -0.84200
C472        C  0.66457035  0.69550702  0.00789080     0.96600
C473        C  0.70828929  0.68008038  0.45139529     1.04000
O474        O  0.65343638  0.69905047  0.42253947    -1.13200
O475        O  0.66218348  0.71745383  0.35610308    -0.75600
O476        O  0.68239666  0.74242543  0.39123147    -0.79100
O477        O  0.65037993  0.67795486  0.99703574    -0.79800
C478        C  0.67218139  0.73842411  0.36244165     0.95500
O479        O  0.64934741  0.75001023  0.44718030    -0.77700
O480        O  0.63606779  0.67093232  0.36302296    -0.82900
C481        C  0.59573127  0.67672492  0.42675432     0.98100
C482        C  0.64586944  0.64988288  0.37123216     1.04000
O483        O  0.61291505  0.66360313  0.44036882    -0.78600
C484        C  0.63168240  0.75642573  0.42703047     1.02300
Fe485      Fe  0.47047419  0.92687710  0.18769350     1.65800
Fe486      Fe  0.45472099  0.87913365  0.24091078     1.73200
Fe487      Fe  0.41457759  0.89760628  0.17851137     1.54400
O488        O  0.41234255  0.93680139  0.16763271    -0.82300
O489        O  0.44611793  0.84654792  0.21550445    -0.80600
O490        O  0.44434023  0.95499081  0.19454639    -0.84800
O491        O  0.45942481  0.92511650  0.13767155    -0.79700
O492        O  0.39405452  0.90121240  0.22453019    -0.81400
O493        O  0.49122230  0.87448466  0.22406905    -0.84200
C494        C  0.44898647  0.90831323  0.11977123     0.96600
C495        C  0.42572764  0.95627616  0.17407831     1.04000
O496        O  0.44648025  0.90099102  0.20241762    -1.13200
O497        O  0.46367358  0.90986739  0.26940343    -0.75600
O498        O  0.48759122  0.93208835  0.23507613    -0.79100
O499        O  0.43319002  0.89281774  0.13203122    -0.79800
C500        C  0.48375664  0.92144349  0.26369420     0.95500
O501        O  0.49718416  0.89958595  0.17856183    -0.77700
O502        O  0.41935298  0.88131215  0.26158598    -0.82900
C503        C  0.42783372  0.84132168  0.19627734     0.98100
C504        C  0.39849018  0.89131200  0.25401800     1.04000
O505        O  0.41364652  0.85815949  0.18329261    -0.78600
C506        C  0.50432154  0.88197460  0.19866708     1.02300
Fe507      Fe  0.46105416  0.07475314  0.06797020     1.65800
Fe508      Fe  0.44329897  0.12579486  0.02204164     1.73200
Fe509      Fe  0.40125332  0.09589321  0.07136555     1.54400
O510        O  0.40359734  0.05671632  0.08152041    -0.82300
O511        O  0.42918417  0.15285951  0.05455220    -0.80600
O512        O  0.43831548  0.04482953  0.05582038    -0.84800
O513        O  0.44692837  0.07392828  0.11715347    -0.79700
O514        O  0.38690950  0.09119439  0.02150874    -0.81400
O515        O  0.47818495  0.13234775  0.04268912    -0.84200
C516        C  0.43343625  0.08934764  0.13372757     0.96600
C517        C  0.42020927  0.04000386  0.07582131     1.04000
O518        O  0.43535886  0.09865376  0.05344038    -1.13200
O519        O  0.46796659  0.09321847  0.47906290    -0.75600
O520        O  0.47859668  0.07337678  0.02039986    -0.79100
O521        O  0.41562211  0.10190367  0.12022376    -0.79800
C522        C  0.48085181  0.07332930  0.48277640     0.95500
O523        O  0.48599727  0.10284873  0.08208155    -0.77700
O524        O  0.41894067  0.11422169  0.48544168    -0.82900
C525        C  0.40686802  0.15425249  0.06493625     0.98100
C526        C  0.39135547  0.10639678  0.99651628     1.04000
O527        O  0.39330964  0.13460789  0.06748114    -0.78600
C528        C  0.49210651  0.12273876  0.06570135     1.02300
Fe529      Fe  0.32401694  0.22269577  0.31201630     1.65800
Fe530      Fe  0.37221880  0.20674186  0.36445894     1.73200
Fe531      Fe  0.35734003  0.16935470  0.29733301     1.54400
O532        O  0.31942428  0.16584053  0.28422769    -0.82300
O533        O  0.40540683  0.20039394  0.33983487    -0.80600
O534        O  0.29810099  0.19387037  0.31525560    -0.84800
O535        O  0.32762560  0.21429500  0.26088744    -0.79700
O536        O  0.35368198  0.14540801  0.34083176    -0.81400
O537        O  0.37594971  0.24431444  0.34963789    -0.84200
C538        C  0.34712352  0.20917510  0.24415193     0.96600
C539        C  0.29891679  0.17655051  0.29247405     1.04000
O540        O  0.35137511  0.19950545  0.32492196    -1.13200
O541        O  0.34092953  0.21335649  0.39218153    -0.75600
O542        O  0.31679565  0.23709076  0.36072059    -0.79100
O543        O  0.36273071  0.19267587  0.25441459    -0.79800
C544        C  0.32946203  0.23379509  0.38777032     0.95500
O545        O  0.34899088  0.25209049  0.30675812    -0.77700
O546        O  0.37048204  0.16992089  0.38187627    -0.82900
C547        C  0.41165145  0.18359098  0.31847712     0.98100
C548        C  0.36193839  0.14881960  0.37153816     1.04000
O549        O  0.39582709  0.16951117  0.30356482    -0.78600
C550        C  0.36727007  0.25841330  0.32584398     1.02300
Fe551      Fe  0.18068571  0.21973730  0.18166267     1.65800
Fe552      Fe  0.12460062  0.20071982  0.15130856     1.73200
Fe553      Fe  0.15882771  0.16021834  0.19816589     1.54400
O554        O  0.19676724  0.16121038  0.20448236    -0.82300
O555        O  0.10086439  0.18416649  0.18576599    -0.80600
O556        O  0.21114487  0.19544329  0.17924690    -0.84800
O557        O  0.17909367  0.21392583  0.23354793    -0.79700
O558        O  0.15975975  0.14347825  0.14932563    -0.81400
O559        O  0.11712643  0.23404504  0.17623488    -0.84200
C560        C  0.16869093  0.19870345  0.25456276     0.96600
C561        C  0.21425396  0.17655026  0.19889779     1.04000
O562        O  0.15502802  0.19361388  0.17662280    -1.13200
O563        O  0.14307634  0.22068852  0.11438672    -0.75600
O564        O  0.18268522  0.22740316  0.12970937    -0.79100
O565        O  0.15746964  0.17821148  0.24588206    -0.79800
C566        C  0.16418218  0.23087850  0.10970565     0.95500
O567        O  0.15515627  0.24932873  0.18574187    -0.77700
O568        O  0.13004983  0.16742255  0.12387469    -0.82900
C569        C  0.10146167  0.16194030  0.19699350     0.98100
C570        C  0.14462441  0.14825767  0.12446397     1.04000
O571        O  0.12170825  0.15010798  0.20006988    -0.78600
C572        C  0.13164130  0.25204432  0.18383875     1.02300
Fe573      Fe  0.51713039  0.92582656  0.44000857     1.65800
Fe574      Fe  0.53740621  0.87538914  0.48629401     1.73200
Fe575      Fe  0.57845280  0.90847770  0.43823528     1.54400
O576        O  0.56581966  0.90201217  0.38842708    -0.82300
O577        O  0.58731856  0.88584399  0.01186675    -0.80600
O578        O  0.53012236  0.92437242  0.39066486    -0.84800
O579        O  0.53798473  0.95803136  0.44815621    -0.79700
O580        O  0.58942870  0.87098790  0.44280782    -0.81400
O581        O  0.54008855  0.90935190  0.02367087    -0.84200
C582        C  0.55672239  0.96286771  0.42927209     0.96600
C583        C  0.54696472  0.91255764  0.37430025     1.04000
O584        O  0.54410280  0.90345635  0.45527393    -1.13200
O585        O  0.50436840  0.86461030  0.46277746    -0.75600
O586        O  0.49280642  0.89668596  0.42902123    -0.79100
O587        O  0.57433712  0.94691561  0.42683252    -0.79800
C588        C  0.48905285  0.87510854  0.44234480     0.95500
O589        O  0.50018975  0.92814496  0.48769056    -0.77700
O590        O  0.55544669  0.84957803  0.45585818    -0.82900
C591        C  0.60692641  0.89877006  0.00633278     0.98100
C592        C  0.57787296  0.85026802  0.44613032     1.04000
O593        O  0.59184786  0.91405539  0.48850364    -0.78600
C594        C  0.52037817  0.92189775  0.01845449     1.02300
Fe595      Fe  0.51896931  0.09044090  0.30649629     1.65800
Fe596      Fe  0.55257395  0.12567383  0.25433619     1.73200
Fe597      Fe  0.58142605  0.09249966  0.31738974     1.54400
O598        O  0.56325314  0.08879880  0.36522150    -0.82300
O599        O  0.57639348  0.10171028  0.22920824    -0.80600
O600        O  0.52885081  0.10785152  0.35055803    -0.84800
O601        O  0.53343913  0.05566520  0.32331153    -0.79700
O602        O  0.58877075  0.13029283  0.32684164    -0.81400
O603        O  0.52262961  0.10943032  0.23052720    -0.84200
C604        C  0.55447537  0.04438095  0.32569997     0.96600
C605        C  0.54079194  0.09470830  0.37157494     1.04000
O606        O  0.55121578  0.10158763  0.29133472    -1.13200
O607        O  0.52846590  0.15113780  0.27821848    -0.75600
O608        O  0.50018899  0.12298239  0.29460744    -0.79100
O609        O  0.57415889  0.05397679  0.31228923    -0.79800
C610        C  0.50677212  0.14550132  0.28892677     0.95500
O611        O  0.50821167  0.07625908  0.25936764    -0.77700
O612        O  0.58215010  0.14555318  0.27420148    -0.82900
C613        C  0.59839535  0.09739365  0.23978699     0.98100
C614        C  0.59036080  0.14784783  0.30458531     1.04000
O615        O  0.60339464  0.09447528  0.27185910    -0.78600
C616        C  0.50720680  0.09145242  0.23387003     1.02300
Fe617      Fe  0.83032377  0.27363824  0.19335711     1.65800
Fe618      Fe  0.87604825  0.29477830  0.14093712     1.73200
Fe619      Fe  0.84978025  0.33459181  0.19863906     1.54400
O620        O  0.81160896  0.33139915  0.20904684    -0.82300
O621        O  0.90525259  0.30925971  0.16843769    -0.80600
O622        O  0.79863140  0.29518455  0.18619534    -0.84800
O623        O  0.83082916  0.28578022  0.24302298    -0.79700
O624        O  0.84387841  0.35244215  0.15086498    -0.81400
O625        O  0.88566120  0.25940240  0.15971944    -0.84200
C626        C  0.84432856  0.30058234  0.26036574     0.96600
C627        C  0.79483854  0.31460301  0.20494513     1.04000
O628        O  0.85191935  0.30111148  0.17734495    -1.13200
O629        O  0.84939904  0.27955133  0.10998685    -0.75600
O630        O  0.82781718  0.25558034  0.14597094    -0.79100
O631        O  0.85651442  0.31881133  0.24706269    -0.79800
C632        C  0.83758844  0.25949899  0.11672033     0.95500
O633        O  0.86060359  0.25099516  0.20401147    -0.77700
O634        O  0.86933800  0.32928924  0.11781487    -0.82900
C635        C  0.90677290  0.32991045  0.18460890     0.98100
C636        C  0.85599432  0.34880067  0.12289457     1.04000
O637        O  0.88761858  0.34215041  0.19415752    -0.78600
C638        C  0.87944616  0.24593022  0.18544628     1.02300
Fe639      Fe  0.68040674  0.27552436  0.31932269     1.65800
Fe640      Fe  0.63170671  0.29647283  0.36691600     1.73200
Fe641      Fe  0.65931790  0.33534180  0.30993476     1.54400
O642        O  0.69772733  0.33195143  0.29959327    -0.82300
O643        O  0.60323751  0.30978919  0.33639364    -0.80600
O644        O  0.71080060  0.29834178  0.32826045    -0.84800
O645        O  0.68093023  0.28697235  0.26882569    -0.79700
O646        O  0.66489456  0.35388307  0.35718875    -0.81400
O647        O  0.62387657  0.26041655  0.34908240    -0.84200
C648        C  0.66541145  0.29927361  0.25089973     0.96600
C649        C  0.71486622  0.31606311  0.30684112     1.04000
O650        O  0.65721286  0.30243165  0.33251445    -1.13200
O651        O  0.65741049  0.28225727  0.40040932    -0.75600
O652        O  0.68157535  0.25850113  0.36748458    -0.79100
O653        O  0.65242363  0.31743071  0.26298925    -0.79800
C654        C  0.66951622  0.26211678  0.39513730     0.95500
O655        O  0.65179518  0.25121845  0.30813011    -0.77700
O656        O  0.63734337  0.33183793  0.38874336    -0.82900
C657        C  0.60194651  0.33147901  0.32283920     0.98100
C658        C  0.65148459  0.35094078  0.38425988     1.04000
O659        O  0.62143914  0.34370828  0.31457001    -0.78600
C660        C  0.63258457  0.24600486  0.32584973     1.02300
Fe661      Fe  0.47481743  0.58109473  0.44148191     1.65800
Fe662      Fe  0.45249376  0.62777552  0.49256341     1.73200
Fe663      Fe  0.41272736  0.59547981  0.44073243     1.54400
O664        O  0.42507378  0.60195761  0.39021617    -0.82300
O665        O  0.41344877  0.62135447  0.01415644    -0.80600
O666        O  0.46168404  0.58167105  0.39264121    -0.84800
O667        O  0.45597080  0.54774620  0.44935609    -0.79700
O668        O  0.40179198  0.63297065  0.44455705    -0.81400
O669        O  0.46201760  0.60006218  0.02545715    -0.84200
C670        C  0.43706949  0.54244978  0.43094609     0.96600
C671        C  0.44419799  0.59201208  0.37600310     1.04000
O672        O  0.44672807  0.60122171  0.45861500    -1.13200
O673        O  0.48548934  0.63982445  0.47113980    -0.75600
O674        O  0.49584674  0.61253590  0.43001791    -0.79100
O675        O  0.41818696  0.55705560  0.43053253    -0.79800
C676        C  0.49957137  0.63269961  0.44684553     0.95500
O677        O  0.49297957  0.57904549  0.48822405    -0.77700
O678        O  0.43442956  0.65464487  0.46353606    -0.82900
C679        C  0.40210884  0.60338014  0.51736209     0.98100
C680        C  0.41289759  0.65367809  0.45033247     1.04000
O681        O  0.39828269  0.58954610  0.49075589    -0.78600
C682        C  0.48082013  0.58621240  0.01984685     1.02300
Fe683      Fe  0.47817888  0.42923860  0.31222868     1.65800
Fe684      Fe  0.45701024  0.38102677  0.26258912     1.73200
Fe685      Fe  0.41713025  0.41157018  0.31510349     1.54400
O686        O  0.43165450  0.40412121  0.36434299    -0.82300
O687        O  0.42468996  0.38975347  0.23599256    -0.80600
O688        O  0.46482111  0.42962938  0.36111171    -0.84800
O689        O  0.45798707  0.46195560  0.30353338    -0.79700
O690        O  0.40664296  0.37399889  0.31074267    -0.81400
O691        O  0.47547195  0.40547139  0.23120875    -0.84200
C692        C  0.43873887  0.46648193  0.32182815     0.96600
C693        C  0.45020268  0.41558728  0.37793138     1.04000
O694        O  0.45081807  0.40743637  0.29618457    -1.13200
O695        O  0.49036333  0.36981302  0.28489538    -0.75600
O696        O  0.50047018  0.39868306  0.32434379    -0.79100
O697        O  0.42174711  0.44993194  0.32554102    -0.79800
C698        C  0.50474909  0.37824566  0.30818541     0.95500
O699        O  0.49714519  0.43052773  0.26579942    -0.77700
O700        O  0.43943227  0.35346104  0.29065303    -0.82900
C701        C  0.40635063  0.40496839  0.23826860     0.98100
C702        C  0.41792773  0.35357174  0.30396436     1.04000
O703        O  0.40191396  0.41791366  0.26556155    -0.78600
C704        C  0.49508774  0.41756596  0.23852994     1.02300
C705        C  0.46048124  0.49734796  0.36046231    -0.26900
C706        C  0.43804427  0.48868889  0.34585775    -0.15000
C707        C  0.41534391  0.49730080  0.36030006     0.35600
C708        C  0.41560685  0.51343383  0.38924270    -0.26400
C709        C  0.43802461  0.52161919  0.40454078    -0.15600
C710        C  0.46079408  0.51363361  0.38932773     0.36700
N711        N  0.48424322  0.52277754  0.40222497    -0.89900
H712        H  0.47801458  0.49060201  0.35010743     0.17800
H713        H  0.39802153  0.52001884  0.39962059     0.17800
N714        N  0.39197476  0.48952942  0.34557646    -0.88900
H715        H  0.49902579  0.51615533  0.38719201     0.35200
H716        H  0.48682776  0.51515811  0.42676337     0.40300
H717        H  0.39112909  0.49687505  0.32062046     0.39900
H718        H  0.37700896  0.49736833  0.35910593     0.34800
C719        C  0.55572769  0.32808603  0.31383845    -0.26900
C720        C  0.57700820  0.34333258  0.31823353    -0.15000
C721        C  0.57391760  0.36975361  0.32056897     0.35600
C722        C  0.55002348  0.38031846  0.31891743    -0.26400
C723        C  0.52882127  0.36524400  0.31419510    -0.15600
C724        C  0.53167940  0.33880044  0.31134355     0.36700
N725        N  0.51024290  0.32297889  0.30606822    -0.89900
H726        H  0.55788171  0.30777308  0.31212404     0.17800
H727        H  0.54817562  0.40068679  0.32032989     0.17800
N728        N  0.59491747  0.38608445  0.32526891    -0.88900
H729        H  0.49898799  0.32450101  0.32792120     0.35200
H730        H  0.51555626  0.30402056  0.30425499     0.40300
H731        H  0.59187861  0.39660458  0.34761114     0.39900
H732        H  0.59548195  0.39868693  0.30454574     0.34800
C733        C  0.76581329  0.29290989  0.24541922    -0.26900
C734        C  0.77292434  0.31537092  0.22876676    -0.15000
C735        C  0.76266136  0.33830399  0.24070317     0.35600
C736        C  0.74491957  0.33825705  0.26755337    -0.26400
C737        C  0.73753889  0.31574313  0.28407258    -0.15600
C738        C  0.74869355  0.29279643  0.27281196     0.36700
N739        N  0.74274820  0.26886359  0.28796071    -0.89900
H740        H  0.77428225  0.27517783  0.23782972     0.17800
H741        H  0.73658201  0.35603011  0.27521073     0.17800
N742        N  0.77004879  0.36176192  0.22543189    -0.88900
H743        H  0.72373089  0.26531245  0.28478195     0.35200
H744        H  0.74702205  0.26950754  0.31417323     0.40300
H745        H  0.77744568  0.37320759  0.24481156     0.39900
H746        H  0.75408270  0.37063350  0.21576888     0.34800
C747        C  0.63569880  0.19978064  0.32890410    -0.26900
C748        C  0.62122264  0.22113565  0.32124393    -0.15000
C749        C  0.59641721  0.21821867  0.31025586     0.35600
C750        C  0.58675174  0.19394312  0.30624954    -0.26400
C751        C  0.60126391  0.17241485  0.31343460    -0.15600
C752        C  0.62610894  0.17535295  0.32510968     0.36700
N753        N  0.64232592  0.15437153  0.33251252    -0.89900
H754        H  0.65473776  0.20213191  0.33779042     0.17800
H755        H  0.56778924  0.19182541  0.29695879     0.17800
N756        N  0.58099355  0.23948943  0.30197109    -0.88900
H757        H  0.65754759  0.15548735  0.31577761     0.35200
H758        H  0.63378783  0.13706466  0.32770242     0.40300
H759        H  0.58992727  0.25008431  0.28288766     0.39900
H760        H  0.57917827  0.25072633  0.32390767     0.34800
C761        C  0.57792224  0.99006640  0.38434529    -0.26900
C762        C  0.55675440  0.98523861  0.40502078    -0.15000
C763        C  0.53479270  0.99896461  0.39750967     0.35600
C764        C  0.53446368  0.01673745  0.37046633    -0.26400
C765        C  0.55569326  0.02199189  0.35005325    -0.15600
C766        C  0.57774023  0.00813669  0.35753783     0.36700
N767        N  0.60026814  0.01165054  0.33837257    -0.89900
H768        H  0.59491047  0.97944542  0.38871544     0.17800
H769        H  0.51721371  0.02688051  0.36603361     0.17800
N770        N  0.51238545  0.99465579  0.41669688    -0.88900
H771        H  0.60668190  0.03006074  0.34220589     0.35200
H772        H  0.59638372  0.00892994  0.31228238     0.40300
H773        H  0.49846787  0.98895192  0.39953291     0.39900
H774        H  0.50686212  0.01179469  0.42765209     0.34800
C775        C  0.48036859  0.16881846  0.32917725    -0.26900
C776        C  0.48738716  0.16454649  0.29493075    -0.15000
C777        C  0.47042111  0.17006530  0.26831439     0.35600
C778        C  0.44597632  0.17753275  0.27653255    -0.26400
C779        C  0.43837648  0.17985118  0.31090681    -0.15600
C780        C  0.45610311  0.17639861  0.33745530     0.36700
N781        N  0.44945315  0.17822967  0.37306152    -0.89900
H782        H  0.49307797  0.16381604  0.34980358     0.17800
H783        H  0.43249183  0.18046424  0.25612725     0.17800
N784        N  0.47751071  0.16594392  0.23318736    -0.88900
H785        H  0.43474619  0.16576587  0.37797748     0.35200
H786        H  0.44348154  0.19665473  0.37803531     0.40300
H787        H  0.49180926  0.17869389  0.22745317     0.39900
H788        H  0.46271104  0.17017375  0.21661740     0.34800
C789        C  0.28110480  0.17859971  0.23373966    -0.26900
C790        C  0.27728513  0.17300166  0.26887158    -0.15000
C791        C  0.25297389  0.16678773  0.27990850     0.35600
C792        C  0.23333552  0.16696535  0.25584407    -0.26400
C793        C  0.23694203  0.17390697  0.22102156    -0.15600
C794        C  0.26130249  0.17975742  0.21008547     0.36700
N795        N  0.26653202  0.18689132  0.17529477    -0.89900
H796        H  0.29962807  0.18329080  0.22484539     0.17800
H797        H  0.21473110  0.16258146  0.26497470     0.17800
N798        N  0.24742087  0.16030866  0.31501498    -0.88900
H799        H  0.25702795  0.20364195  0.16975633     0.35200
H800        H  0.25996277  0.17267479  0.15900750     0.40300
H801        H  0.26349397  0.16012143  0.33016018     0.39900
H802        H  0.24058504  0.14181317  0.31518346     0.34800
C803        C  0.40574364  0.28357249  0.31923572    -0.26900
C804        C  0.37961161  0.28294884  0.32011908    -0.15000
C805        C  0.36611403  0.30575163  0.31708091     0.35600
C806        C  0.37897621  0.32851348  0.31250209    -0.26400
C807        C  0.40520487  0.32916180  0.31087355    -0.15600
C808        C  0.41872090  0.30636979  0.31476644     0.36700
N809        N  0.44554281  0.30641645  0.31466118    -0.89900
H810        H  0.41610659  0.26609929  0.32204554     0.17800
H811        H  0.36829855  0.34579074  0.30977881     0.17800
N812        N  0.33946439  0.30649271  0.31966967    -0.88900
H813        H  0.45252985  0.28807047  0.31730219     0.35200
H814        H  0.45141458  0.31641199  0.33638242     0.40300
H815        H  0.33424045  0.29829977  0.34307387     0.39900
H816        H  0.33185449  0.29591402  0.29958163     0.34800
C817        C  0.36089161  0.11807060  0.45889702    -0.26900
C818        C  0.38241134  0.10301700  0.45679382    -0.15000
C819        C  0.39245239  0.09807994  0.42383047     0.35600
C820        C  0.38267280  0.11024234  0.39440684    -0.26400
C821        C  0.36329493  0.12793246  0.39727582    -0.15600
C822        C  0.35152134  0.13075302  0.42957612     0.36700
N823        N  0.33127087  0.14819714  0.43318158    -0.89900
H824        H  0.35312596  0.12247248  0.48391771     0.17800
H825        H  0.39222577  0.10808624  0.37001844     0.17800
N826        N  0.41416556  0.08249794  0.42062710    -0.88900
H827        H  0.33641992  0.16186623  0.45122606     0.35200
H828        H  0.31596734  0.13831227  0.44301270     0.40300
H829        H  0.42834095  0.09336764  0.40956315     0.39900
H830        H  0.40996005  0.06778613  0.40368207     0.34800
C831        C  0.48656826  0.06876549  0.42153246    -0.26900
C832        C  0.49706036  0.06676852  0.45416425    -0.15000
C833        C  0.52326419  0.06844527  0.45816814     0.35600
C834        C  0.53792661  0.07591466  0.43022664    -0.26400
C835        C  0.52656700  0.08232840  0.39902537    -0.15600
C836        C  0.50089827  0.07702835  0.39402701     0.36700
N837        N  0.48897317  0.08099362  0.36142653    -0.89900
H838        H  0.46657442  0.06691628  0.41826443     0.17800
H839        H  0.55777692  0.07877133  0.43376047     0.17800
N840        N  0.52874564  0.09642897  0.99480510    -0.88900
H841        H  0.47464224  0.09418363  0.36474055     0.35200
H842        H  0.48096589  0.06393395  0.35361848     0.40300
H843        H  0.52801783  0.08180905  0.01287515     0.39900
H844        H  0.51855349  0.11175994  0.00414249     0.34800
C845        C  0.46121754  0.11378192  0.16642509    -0.26900
C846        C  0.44297049  0.09510921  0.16774507    -0.15000
C847        C  0.44470657  0.07578869  0.19280037     0.35600
C848        C  0.46576693  0.07466477  0.21428434    -0.26400
C849        C  0.48570940  0.09159539  0.20978985    -0.15600
C850        C  0.48327234  0.11117932  0.18491355     0.36700
N851        N  0.50367792  0.12755099  0.17630510    -0.89900
H852        H  0.46043431  0.12808579  0.14638246     0.17800
H853        H  0.46686874  0.05997409  0.23365908     0.17800
N854        N  0.42615635  0.05630280  0.19551612    -0.88900
H855        H  0.49782178  0.14626586  0.17883465     0.35200
H856        H  0.50815261  0.12469350  0.15043705     0.40300
H857        H  0.41149321  0.05968009  0.17838324     0.39900
H858        H  0.41847887  0.05739222  0.22018833     0.34800
C859        C  0.44467268  0.99127358  0.14001801    -0.26900
C860        C  0.42286189  0.97915092  0.15146063    -0.15000
C861        C  0.39986105  0.98638557  0.13640420     0.35600
C862        C  0.39925735  0.00566496  0.11094255    -0.26400
C863        C  0.42126453  0.01728710  0.09900859    -0.15600
C864        C  0.44415310  0.00982343  0.11407253     0.36700
N865        N  0.46706708  0.02160249  0.10393496    -0.89900
H866        H  0.46260611  0.98570484  0.15044954     0.17800
H867        H  0.38151643  0.01165064  0.10035239     0.17800
N868        N  0.37719718  0.97420614  0.14703726    -0.88900
H869        H  0.47915984  0.00754172  0.09510410     0.35200
H870        H  0.47511302  0.02982595  0.12571939     0.40300
H871        H  0.36195110  0.98153909  0.13352877     0.39900
H872        H  0.37435450  0.97856736  0.17296257     0.34800
C873        C  0.50723668  0.89445997  0.30391426    -0.26900
C874        C  0.50458157  0.91816389  0.28798117    -0.15000
C875        C  0.52282532  0.93680928  0.29355307     0.35600
C876        C  0.54121157  0.93273350  0.31869650    -0.26400
C877        C  0.54169752  0.91015555  0.33777718    -0.15600
C878        C  0.52578665  0.89020900  0.32831680     0.36700
N879        N  0.52653804  0.86626034  0.34558732    -0.89900
H880        H  0.49430419  0.87930213  0.29817202     0.17800
H881        H  0.55321517  0.94829220  0.32609141     0.17800
N882        N  0.52182703  0.96036260  0.27544984    -0.88900
H883        H  0.52284774  0.86892948  0.37173181     0.35200
H884        H  0.54456732  0.85894359  0.34314156     0.40300
H885        H  0.53872287  0.96266461  0.26239249     0.39900
H886        H  0.52033255  0.97488142  0.29354313     0.34800
C887        C  0.45924769  0.92981488  0.06645582    -0.26900
C888        C  0.45830102  0.90685682  0.08464930    -0.15000
C889        C  0.47590748  0.88792502  0.07727661     0.35600
C890        C  0.49594964  0.89346131  0.05575313    -0.26400
C891        C  0.49873709  0.91758541  0.04104219    -0.15600
C892        C  0.47942252  0.93541082  0.04485422     0.36700
N893        N  0.48089644  0.95966318  0.02859421    -0.89900
H894        H  0.44590887  0.94461445  0.07230153     0.17800
H895        H  0.50976967  0.87889809  0.05117784     0.17800
N896        N  0.47499193  0.86364506  0.09355267    -0.88900
H897        H  0.48040507  0.97349063  0.04775450     0.35200
H898        H  0.46914173  0.96078597  0.50838458     0.40300
H899        H  0.45769474  0.85553430  0.08793056     0.39900
H900        H  0.47636532  0.86598074  0.12018096     0.34800
C901        C  0.55696806  0.65912626  0.40309365    -0.26900
C902        C  0.56993765  0.66860734  0.43156939    -0.15000
C903        C  0.55874374  0.66873534  0.46424439     0.35600
C904        C  0.53481783  0.65844774  0.46805566    -0.26400
C905        C  0.52234360  0.64744530  0.43997977    -0.15600
C906        C  0.53323638  0.64837399  0.40698374     0.36700
N907        N  0.52029882  0.63817702  0.37776019    -0.89900
H908        H  0.56579362  0.65930241  0.37800310     0.17800
H909        H  0.52648217  0.65777909  0.49343123     0.17800
N910        N  0.57168122  0.67929102  0.49328312    -0.88900
H911        H  0.53100473  0.64015372  0.35543875     0.35200
H912        H  0.50427334  0.64909814  0.37416207     0.40300
H913        H  0.58715018  0.66786268  0.49840434     0.39900
H914        H  0.56045974  0.67859219  0.51526077     0.34800
C915        C  0.59249048  0.78149262  0.42597826    -0.26900
C916        C  0.61818423  0.78044141  0.43303173    -0.15000
C917        C  0.63058179  0.80276720  0.44344076     0.35600
C918        C  0.61717329  0.82532287  0.44653396    -0.26400
C919        C  0.59140156  0.82626015  0.44013286    -0.15600
C920        C  0.57899559  0.80404395  0.42975355     0.36700
N921        N  0.55279691  0.80434245  0.42246049    -0.89900
H922        H  0.58274417  0.76463786  0.41764950     0.17800
H923        H  0.62697209  0.84217957  0.45473257     0.17800
N924        N  0.65685058  0.80337775  0.45014632    -0.88900
H925        H  0.54411743  0.79118425  0.43857442     0.35200
H926        H  0.55023300  0.79847714  0.39703349     0.40300
H927        H  0.66628538  0.79671291  0.42843954     0.39900
H928        H  0.66072242  0.79160720  0.47107642     0.34800
C929        C  0.73718812  0.69918648  0.49327167    -0.26900
C930        C  0.73026582  0.67761161  0.47464542    -0.15000
C931        C  0.74610287  0.65142709  0.97746499     0.35600
C932        C  0.76523152  0.65186010  0.00242262    -0.26400
C933        C  0.77215105  0.67447627  0.01884650    -0.15600
C934        C  0.75404294  0.69788909  0.52085353     0.36700
N935        N  0.75990646  0.72055713  0.53925644    -0.89900
H936        H  0.72855526  0.71721296  0.48742166     0.17800
H937        H  0.77443183  0.63436795  0.00944241     0.17800
N938        N  0.73921851  0.62763758  0.96277996    -0.88900
H939        H  0.74334490  0.72779853  0.54948380     0.35200
H940        H  0.76696541  0.73375191  0.52174571     0.40300
H941        H  0.74087341  0.62901515  0.93604579     0.39900
H942        H  0.72062747  0.62383296  0.96886712     0.34800
C943        C  0.90607516  0.18796567  0.23015035    -0.26900
C944        C  0.91789336  0.17590675  0.20262204    -0.15000
C945        C  0.91879239  0.18773711  0.17019518     0.35600
C946        C  0.90716156  0.21114595  0.16562714    -0.26400
C947        C  0.89408572  0.22279398  0.19274424    -0.15600
C948        C  0.89401017  0.21118397  0.22549555     0.36700
N949        N  0.88156397  0.22268482  0.25405154    -0.89900
H950        H  0.90532221  0.17880647  0.25510348     0.17800
H951        H  0.90748316  0.21971432  0.14029077     0.17800
N952        N  0.93119635  0.17628013  0.14154101    -0.88900
H953        H  0.89464456  0.22525646  0.27369129     0.35200
H954        H  0.86798887  0.21012597  0.26303038     0.40300
H955        H  0.92277741  0.15886990  0.13651072     0.39900
H956        H  0.94978013  0.17301465  0.14842140     0.34800
C957        C  0.07507204  0.12377030  0.19300130    -0.26900
C958        C  0.07775130  0.14885351  0.20391279    -0.15000
C959        C  0.05706736  0.16165978  0.21766621     0.35600
C960        C  0.03388689  0.14949254  0.21930419    -0.26400
C961        C  0.03082970  0.12463571  0.20720357    -0.15600
C962        C  0.05195843  0.11160190  0.19423777     0.36700
N963        N  0.05080523  0.08594192  0.18269551    -0.89900
H964        H  0.09090510  0.11377982  0.18224364     0.17800
H965        H  0.01815627  0.15967451  0.22998316     0.17800
N966        N  0.05963557  0.18689242  0.23045487    -0.88900
H967        H  0.04380884  0.07469421  0.20260560     0.35200
H968        H  0.03894376  0.08491623  0.16140921     0.40300
H969        H  0.05443390  0.18691203  0.25637597     0.39900
H970        H  0.04718259  0.19848127  0.21702238     0.34800
C971        C  0.88163038  0.81980647  0.03649708    -0.26900
C972        C  0.89603573  0.82998699  0.06315925    -0.15000
C973        C  0.89859580  0.81657834  0.09429328     0.35600
C974        C  0.88676282  0.79302987  0.09789915    -0.26400
C975        C  0.87251901  0.78257217  0.07096243    -0.15600
C976        C  0.86973087  0.79645220  0.04012915     0.36700
N977        N  0.85527029  0.78684545  0.01206549    -0.89900
H978        H  0.87965181  0.83005031  0.01247206     0.17800
H979        H  0.88892705  0.78271825  0.12179815     0.17800
N980        N  0.91372973  0.82652302  0.12165913    -0.88900
H981        H  0.86684815  0.78579138  0.99049959     0.35200
H982        H  0.84110716  0.79984904  0.00666256     0.40300
H983        H  0.93216661  0.82709997  0.11291760     0.39900
H984        H  0.91352051  0.81437500  0.14289502     0.34800
C985        C  0.95480754  0.00872087  0.14664615    -0.26900
C986        C  0.93131722  0.01455590  0.16041113    -0.15000
C987        C  0.90985507  0.00402331  0.14441859     0.35600
C988        C  0.91275401  0.98735952  0.11625388    -0.26400
C989        C  0.93646441  0.98139202  0.10282067    -0.15600
C990        C  0.95756756  0.99339242  0.11749801     0.36700
N991        N  0.98195913  0.98997553  0.10277716    -0.89900
H992        H  0.97129219  0.01745297  0.15752933     0.17800
H993        H  0.89634749  0.97823376  0.10577323     0.17800
N994        N  0.88500054  0.00919674  0.15642702    -0.88900
H995        H  0.99547673  0.99985222  0.11671979     0.35200
H996        H  0.98164115  0.99786343  0.07810814     0.40300
H997        H  0.88524668  0.02021209  0.17864886     0.39900
H998        H  0.87700648  0.99198272  0.16368319     0.34800
C999        C  0.08875097  0.30552279  0.21064902    -0.26900
C1000       C  0.09833734  0.32603171  0.19155619    -0.15000
C1001       C  0.11941723  0.32170351  0.17018486     0.35600
C1002       C  0.13036589  0.29765799  0.16909186    -0.26400
C1003       C  0.12078200  0.27748214  0.18843950    -0.15600
C1004       C  0.09970006  0.28139961  0.20926801     0.36700
N1005       N  0.08964911  0.26089404  0.22920266    -0.89900
H1006       H  0.07279006  0.30831257  0.22728615     0.17800
H1007       H  0.14617050  0.29453003  0.15222133     0.17800
N1008       N  0.12986327  0.34095126  0.14862722    -0.88900
H1009       H  0.07404860  0.26682800  0.24315780     0.35200
H1010       H  0.10316260  0.25560785  0.24724330     0.40300
H1011       H  0.13704766  0.35535489  0.16405673     0.39900
H1012       H  0.11581817  0.34815485  0.13271954     0.34800
C1013       C  0.95101305  0.33595790  0.16724708    -0.26900
C1014       C  0.93178433  0.34064139  0.19106082    -0.15000
C1015       C  0.93648381  0.35649646  0.21945124     0.35600
C1016       C  0.95987369  0.36799751  0.22289632    -0.26400
C1017       C  0.97855045  0.36415223  0.19825451    -0.15600
C1018       C  0.97438544  0.34769756  0.17053992     0.36700
N1019       N  0.99381930  0.34319574  0.14583305    -0.89900
H1020       H  0.94757307  0.32372653  0.14543404     0.17800
H1021       H  0.96328944  0.38045044  0.24451648     0.17800
N1022       N  0.91765387  0.36086173  0.24490766    -0.88900
H1023       H  0.98772742  0.33060699  0.12691472     0.35200
H1024       H  0.00855114  0.33430879  0.15868986     0.40300
H1025       H  0.91427644  0.38029718  0.24607155     0.39900
H1026       H  0.92468483  0.35511525  0.26876413     0.34800
C1027       C  0.08268992  0.51652643  0.10943853    -0.26900
C1028       C  0.05931166  0.52093148  0.09375350    -0.15000
C1029       C  0.03869015  0.50653274  0.10599678     0.35600
C1030       C  0.04151319  0.48998902  0.13405873    -0.26400
C1031       C  0.06466537  0.48607396  0.15016969    -0.15600
C1032       C  0.08555107  0.49905782  0.13686605     0.36700
N1033       N  0.10970079  0.49487808  0.15151509    -0.89900
H1034       H  0.09880751  0.52725250  0.10113496     0.17800
H1035       H  0.02545988  0.47912681  0.14233244     0.17800
N1036       N  0.01477167  0.50721994  0.08958796    -0.88900
H1037       H  0.11647409  0.51220186  0.16038791     0.35200
H1038       H  0.12154458  0.48860038  0.13194967     0.40300
H1039       H  0.01718477  0.50444146  0.06317410     0.39900
H1040       H  0.00638488  0.52466115  0.09392710     0.34800
C1041       C  0.96867271  0.65327272  0.08778411    -0.26900
C1042       C  0.98304915  0.66185276  0.05988265    -0.15000
C1043       C  0.97338240  0.68103557  0.03847417     0.35600
C1044       C  0.94816704  0.68846613  0.04245562    -0.26400
C1045       C  0.93305043  0.67710899  0.06769154    -0.15600
C1046       C  0.94371412  0.66031933  0.09152327     0.36700
N1047       N  0.92879488  0.64968906  0.11866825    -0.89900
H1048       H  0.97629442  0.63902926  0.10489007     0.17800
H1049       H  0.94006379  0.70226310  0.02512804     0.17800
N1050       N  0.98853659  0.69156589  0.01159829    -0.88900
H1051       H  0.93948469  0.63768074  0.13416293     0.35200
H1052       H  0.91518249  0.63841087  0.10715745     0.40300
H1053       H  0.00338625  0.70101336  0.02334300     0.39900
H1054       H  0.94028448  0.63630058  0.47498370     0.34800
C1055       C  0.35483155  0.38574510  0.17767770    -0.26900
C1056       C  0.36757474  0.38662728  0.14602177    -0.15000
C1057       C  0.39052012  0.39970139  0.14452032     0.35600
C1058       C  0.40116975  0.40945100  0.17499469    -0.26400
C1059       C  0.38982932  0.40582179  0.20730076    -0.15600
C1060       C  0.36577432  0.39504210  0.20832421     0.36700
N1061       N  0.35389678  0.39079911  0.24094145    -0.89900
H1062       H  0.33761481  0.37508390  0.17922973     0.17800
H1063       H  0.41978904  0.41739670  0.17406595     0.17800
N1064       N  0.40417355  0.40077676  0.11268490    -0.88900
H1065       H  0.33675679  0.38171709  0.23756506     0.35200
H1066       H  0.34998287  0.40848068  0.25159179     0.40300
H1067       H  0.40974610  0.38241720  0.10644980     0.39900
H1068       H  0.42056138  0.41124088  0.11573495     0.34800
C1069       C  0.36097982  0.27825435  0.45090876    -0.26900
C1070       C  0.34273738  0.29685611  0.45490161    -0.15000
C1071       C  0.32130477  0.29623798  0.43397532     0.35600
C1072       C  0.31731191  0.27573767  0.41181798    -0.26400
C1073       C  0.33416050  0.25542431  0.41099602    -0.15600
C1074       C  0.35673018  0.25732161  0.42978576     0.36700
N1075       N  0.37525365  0.23783389  0.42820719    -0.89900
H1076       H  0.37729513  0.27833024  0.46742762     0.17800
H1077       H  0.30042864  0.27517742  0.39649941     0.17800
N1078       N  0.30271937  0.31553358  0.43719410    -0.88900
H1079       H  0.37806185  0.23086015  0.45309561     0.35200
H1080       H  0.39197163  0.24593934  0.41983667     0.40300
H1081       H  0.28593700  0.30691168  0.44418570     0.39900
H1082       H  0.30020386  0.32380647  0.41300166     0.34800
C1083       C  0.33152081  0.23866146  0.16072412    -0.26900
C1084       C  0.33503879  0.26419929  0.16968304    -0.15000
C1085       C  0.34834726  0.26999152  0.20012923     0.35600
C1086       C  0.35677297  0.25031638  0.22125653    -0.26400
C1087       C  0.35110232  0.22508399  0.21391348    -0.15600
C1088       C  0.33943499  0.21913266  0.18266143     0.36700
N1089       N  0.33528269  0.19330703  0.17345997    -0.89900
H1090       H  0.32258549  0.23377383  0.13664668     0.17800
H1091       H  0.36575675  0.25485208  0.24541280     0.17800
N1092       N  0.35261616  0.29578568  0.21017344    -0.88900
H1093       H  0.34480079  0.18986792  0.15046678     0.35200
H1094       H  0.31628088  0.19096152  0.16853584     0.40300
H1095       H  0.36285980  0.29666269  0.23304497     0.39900
H1096       H  0.33524121  0.30390895  0.21536915     0.34800
C1097       C  0.37002712  0.18309129  0.06909402    -0.26900
C1098       C  0.39591728  0.17956536  0.07242388    -0.15000
C1099       C  0.41090734  0.20062919  0.08091851     0.35600
C1100       C  0.39995960  0.22462348  0.08474644    -0.26400
C1101       C  0.37422251  0.22828532  0.07986037    -0.15600
C1102       C  0.35914692  0.20712401  0.07262214     0.36700
N1103       N  0.33267536  0.20983858  0.06935316    -0.89900
H1104       H  0.35812406  0.16720924  0.06284209     0.17800
H1105       H  0.41179980  0.24058357  0.09088636     0.17800
N1106       N  0.43724269  0.19778872  0.08592209    -0.88900
H1107       H  0.33280133  0.18692384  0.56447519     0.35200
H1108       H  0.32748643  0.20338081  0.04497799     0.40300
H1109       H  0.44157459  0.20382038  0.11081661     0.39900
H1110       H  0.44639164  0.20968958  0.06854018     0.34800
C1111       C  0.24354889  0.35005580  0.48485434    -0.26900
C1112       C  0.23387418  0.32688994  0.47306475    -0.15000
C1113       C  0.22745265  0.33883069  0.01337738     0.35600
C1114       C  0.24831303  0.33791387  0.03553007    -0.26400
C1115       C  0.27236073  0.34324456  0.02356319    -0.15600
C1116       C  0.26228432  0.35093259  0.51048307     0.36700
N1117       N  0.27250828  0.37477136  0.52061625    -0.89900
H1118       H  0.23662672  0.36757838  0.47401758     0.17800
H1119       H  0.24575896  0.33298943  0.06236047     0.17800
N1120       N  0.20289966  0.33537345  0.02734949    -0.88900
H1121       H  0.25789405  0.38614181  0.52939677     0.35200
H1122       H  0.28014056  0.38336928  0.49879680     0.40300
H1123       H  0.19336583  0.35249104  0.02464906     0.39900
H1124       H  0.20373797  0.33177446  0.05378027     0.34800
C1125       C  0.15379696  0.36875683  0.30661502    -0.26900
C1126       C  0.14740687  0.37671094  0.33995791    -0.15000
C1127       C  0.13278417  0.39870580  0.34352626     0.35600
C1128       C  0.12222396  0.41029163  0.31414245    -0.26400
C1129       C  0.12628382  0.40044423  0.28101144    -0.15600
C1130       C  0.14354905  0.38050701  0.27717781     0.36700
N1131       N  0.14811031  0.37024087  0.24354729    -0.89900
H1132       H  0.16481681  0.35173432  0.30361663     0.17800
H1133       H  0.10865601  0.42525650  0.31760118     0.17800
N1134       N  0.12645087  0.40771531  0.37712264    -0.88900
H1135       H  0.16058065  0.35508319  0.24496876     0.35200
H1136       H  0.15685593  0.38428099  0.22896503     0.40300
H1137       H  0.10703954  0.40721021  0.37966057     0.39900
H1138       H  0.13212987  0.42656299  0.37882363     0.34800
C1139       C  0.14353526  0.26375606  0.07461397    -0.26900
C1140       C  0.16542787  0.24993613  0.08213423    -0.15000
C1141       C  0.18764244  0.25606627  0.06521351     0.35600
C1142       C  0.18732515  0.27481056  0.03987678    -0.26400
C1143       C  0.16495196  0.28715742  0.03018691    -0.15600
C1144       C  0.14298239  0.28212050  0.04857952     0.36700
N1145       N  0.12006600  0.29474976  0.03998553    -0.89900
H1146       H  0.12654530  0.25993269  0.08878672     0.17800
H1147       H  0.20456229  0.27870715  0.02628950     0.17800
N1148       N  0.21024377  0.24262747  0.07250806    -0.88900
H1149       H  0.10584923  0.28941044  0.05690161     0.35200
H1150       H  0.11460732  0.28853009  0.01560386     0.40300
H1151       H  0.22373648  0.25574306  0.08009203     0.39900
H1152       H  0.21635032  0.23412889  0.04975106     0.34800
C1153       C  0.14717401  0.23682594  0.32691250    -0.26900
C1154       C  0.16994321  0.24813479  0.33626618    -0.15000
C1155       C  0.19246244  0.23715037  0.32565957     0.35600
C1156       C  0.19179375  0.21685669  0.30262382    -0.26400
C1157       C  0.16891565  0.20763349  0.29000531    -0.15600
C1158       C  0.14645535  0.21651809  0.30395212     0.36700
N1159       N  0.12302145  0.20665064  0.29201607    -0.89900
H1160       H  0.12979894  0.24432541  0.33686877     0.17800
H1161       H  0.20915624  0.21016919  0.29162686     0.17800
N1162       N  0.21587618  0.24756094  0.33628570    -0.88900
H1163       H  0.10814865  0.21588098  0.30403545     0.35200
H1164       H  0.12209402  0.18771921  0.29960205     0.40300
H1165       H  0.22565680  0.25310791  0.31426963     0.39900
H1166       H  0.22608914  0.23324302  0.34836833     0.34800
C1167       C  0.96589659  0.91875285  0.22757989    -0.26900
C1168       C  0.98770376  0.93349549  0.22463862    -0.15000
C1169       C  0.99317337  0.94526931  0.19311255     0.35600
C1170       C  0.97934069  0.93864705  0.16410535    -0.26400
C1171       C  0.95977244  0.92103216  0.16597798    -0.15600
C1172       C  0.95185852  0.91218788  0.19824603     0.36700
N1173       N  0.93108307  0.89514718  0.20079037    -0.89900
H1174       H  0.96178496  0.90960420  0.25190032     0.17800
H1175       H  0.98537154  0.94572680  0.13935239     0.17800
N1176       N  0.01427452  0.96174389  0.18896495    -0.88900
H1177       H  0.92796503  0.89015522  0.22646987     0.35200
H1178       H  0.93582753  0.87852560  0.18786360     0.40300
H1179       H  0.02269322  0.96540140  0.21268453     0.39900
H1180       H  0.00751813  0.97912745  0.18017047     0.34800
C1181       C  0.03628181  0.93067303  0.42723844    -0.26900
C1182       C  0.04714344  0.90762270  0.41722761    -0.15000
C1183       C  0.04376406  0.88610010  0.43758837     0.35600
C1184       C  0.02760032  0.88723135  0.46570533    -0.26400
C1185       C  0.01409011  0.90938778  0.47307152    -0.15600
C1186       C  0.01944928  0.93174683  0.45496179     0.36700
N1187       N  0.00944191  0.96096262  0.96230816    -0.89900
H1188       H  0.03863959  0.94714731  0.41095920     0.17800
H1189       H  0.02404193  0.87010290  0.48016179     0.17800
N1190       N  0.05494526  0.86257739  0.42790541    -0.88900
H1191       H  0.01506662  0.97482174  0.94475414     0.35200
H1192       H  0.01429485  0.96761621  0.98671063     0.40300
H1193       H  0.04068513  0.84945867  0.42375048     0.39900
H1194       H  0.06569689  0.85617755  0.44860532     0.34800
C1195       C  0.12386453  0.11232151  0.09577417    -0.26900
C1196       C  0.14233133  0.13109021  0.09462961    -0.15000
C1197       C  0.15191659  0.13848461  0.06245437     0.35600
C1198       C  0.14156138  0.12864067  0.03200625    -0.26400
C1199       C  0.12110814  0.11210143  0.03306651    -0.15600
C1200       C  0.11307773  0.10277641  0.06544186     0.36700
N1201       N  0.09271773  0.08524120  0.06857125    -0.89900
H1202       H  0.11600399  0.10685844  0.12037644     0.17800
H1203       H  0.14774265  0.13612526  0.00752874     0.17800
N1204       N  0.17065575  0.15771071  0.06059202    -0.88900
H1205       H  0.09955193  0.06913685  0.08101279     0.35200
H1206       H  0.08658237  0.07920246  0.04444796     0.40300
H1207       H  0.16346428  0.17285173  0.04639796     0.39900
H1208       H  0.18588649  0.15036984  0.04711331     0.34800
C1209       C  0.08087802  0.20148050  0.44577779    -0.26900
C1210       C  0.09600273  0.17973229  0.44367801    -0.15000
C1211       C  0.12181496  0.18286975  0.43719848     0.35600
C1212       C  0.13180690  0.20710676  0.43323214    -0.26400
C1213       C  0.11678322  0.22868732  0.43522365    -0.15600
C1214       C  0.09102214  0.22584215  0.44131295     0.36700
N1215       N  0.07524480  0.24759777  0.44380741    -0.89900
H1216       H  0.06110065  0.19964059  0.45092788     0.17800
H1217       H  0.15158139  0.20900287  0.42797878     0.17800
N1218       N  0.13825242  0.16157841  0.43508972    -0.88900
H1219       H  0.06685037  0.24744929  0.46808037     0.35200
H1220       H  0.06116066  0.24591927  0.42534096     0.40300
H1221       H  0.15212824  0.16366206  0.45378214     0.39900
H1222       H  0.14681025  0.16182939  0.41092466     0.34800
C1223       C  0.05198841  0.01338101  0.39479802    -0.26900
C1224       C  0.07492303  0.01758543  0.41121262    -0.15000
C1225       C  0.09608064  0.00414439  0.39918740     0.35600
C1226       C  0.09355019  0.98631270  0.37234574    -0.26400
C1227       C  0.07040491  0.98211556  0.35609337    -0.15600
C1228       C  0.04969770  0.99664624  0.36707209     0.36700
N1229       N  0.02613579  0.99474466  0.34980482    -0.89900
H1230       H  0.03567256  0.02403580  0.40254718     0.17800
H1231       H  0.10958637  0.97507583  0.36505337     0.17800
N1232       N  0.12009678  0.00743575  0.41464152    -0.88900
H1233       H  0.02135797  0.01265463  0.34050571     0.35200
H1234       H  0.01269138  0.98934377  0.36785397     0.40300
H1235       H  0.11844315  0.00394872  0.44102295     0.39900
H1236       H  0.12570963  0.02615387  0.41115008     0.34800
C1237       C  0.98831932  0.07171525  0.05014024    -0.26900
C1238       C  0.00521360  0.09201137  0.04931558    -0.15000
C1239       C  0.00247870  0.11161805  0.07388889     0.35600
C1240       C  0.98305211  0.11071520  0.09789614    -0.26400
C1241       C  0.96668057  0.09021903  0.09911388    -0.15600
C1242       C  0.96920213  0.07052333  0.07471963     0.36700
N1243       N  0.95305821  0.04881864  0.07466650    -0.89900
H1244       H  0.98969099  0.05672213  0.03129131     0.17800
H1245       H  0.98203449  0.12521518  0.11754260     0.17800
N1246       N  0.01976762  0.13223158  0.07540764    -0.88900
H1247       H  0.94403465  0.04828797  0.05083169     0.35200
H1248       H  0.93894877  0.05056894  0.09301744     0.40300
H1249       H  0.02794449  0.13233586  0.09984050     0.39900
H1250       H  0.00977117  0.14905770  0.07239467     0.34800
C1251       C  0.03025917  0.06509633  0.29789197    -0.26900
C1252       C  0.00839359  0.07979775  0.29875115    -0.15000
C1253       C  0.00824473  0.10197905  0.31907340     0.35600
C1254       C  0.02852309  0.10745520  0.34048304    -0.26400
C1255       C  0.04872887  0.09086993  0.34310257    -0.15600
C1256       C  0.05028822  0.07038714  0.32015568     0.36700
N1257       N  0.07168227  0.05419890  0.32082970    -0.89900
H1258       H  0.03141733  0.04884536  0.28105451     0.17800
H1259       H  0.02700624  0.12315636  0.35826339     0.17800
N1260       N  0.98736836  0.11888933  0.31867784    -0.88900
H1261       H  0.07969908  0.05443465  0.29631997     0.35200
H1262       H  0.06563265  0.03579735  0.32565575     0.40300
H1263       H  0.99374741  0.13675576  0.31129579     0.39900
H1264       H  0.98036980  0.12021917  0.34371959     0.34800
C1265       C  0.52124169  0.15923015  0.05875046    -0.26900
C1266       C  0.51704833  0.13453686  0.07111920    -0.15000
C1267       C  0.53761660  0.12052115  0.08351475     0.35600
C1268       C  0.56163031  0.13106641  0.08245892    -0.26400
C1269       C  0.56578461  0.15544184  0.06954546    -0.15600
C1270       C  0.54533473  0.16979313  0.05783606     0.36700
N1271       N  0.54918682  0.19477248  0.04429034    -0.89900
H1272       H  0.50572229  0.17017996  0.04889322     0.17800
H1273       H  0.57717611  0.12019842  0.09209691     0.17800
N1274       N  0.53447477  0.09529829  0.09619787    -0.88900
H1275       H  0.53224173  0.20278719  0.03661565     0.35200
H1276       H  0.56008424  0.19307218  0.02210805     0.40300
H1277       H  0.54553112  0.08324370  0.08133812     0.39900
H1278       H  0.54111364  0.09467331  0.12148291     0.34800
C1279       C  0.67972066  0.20201551  0.44702955    -0.26900
C1280       C  0.65739635  0.20086671  0.46600251    -0.15000
C1281       C  0.63818173  0.21828582  0.45849169     0.35600
C1282       C  0.64295547  0.23818424  0.43570618    -0.26400
C1283       C  0.66628907  0.24093316  0.41956947    -0.15600
C1284       C  0.68439971  0.22199137  0.42414202     0.36700
N1285       N  0.70813839  0.22382648  0.40745962    -0.89900
H1286       H  0.69481299  0.18912146  0.45319524     0.17800
H1287       H  0.62827941  0.25185211  0.43097116     0.17800
N1288       N  0.61452526  0.21778247  0.47594952    -0.88900
H1289       H  0.71078952  0.20743240  0.39295100     0.35200
H1290       H  0.72195457  0.22436840  0.42644754     0.40300
H1291       H  0.61297034  0.20184917  0.49164176     0.39900
H1292       H  0.60066035  0.21588426  0.45720778     0.34800
C1293       C  0.68324592  0.26788896  0.16923748    -0.26900
C1294       C  0.66363958  0.25042266  0.16673787    -0.15000
C1295       C  0.64202572  0.25411667  0.18712275     0.35600
C1296       C  0.64130698  0.27366415  0.21130364    -0.26400
C1297       C  0.66188232  0.28942858  0.21612248    -0.15600
C1298       C  0.68267248  0.28706283  0.19418400     0.36700
N1299       N  0.70380343  0.30327742  0.19862717    -0.89900
H1300       H  0.69950719  0.26600636  0.15289340     0.17800
H1301       H  0.62549250  0.27495163  0.22861267     0.17800
N1302       N  0.62074162  0.23794095  0.18366282    -0.88900
H1303       H  0.70695009  0.31271324  0.17538796     0.35200
H1304       H  0.71936080  0.29196166  0.20371169     0.40300
H1305       H  0.60534143  0.24913129  0.17726238     0.39900
H1306       H  0.61726273  0.22951690  0.20753525     0.34800
C1307       C  0.64676661  0.13191047  0.18960795    -0.26900
C1308       C  0.64072289  0.12406273  0.15615685    -0.15000
C1309       C  0.62659715  0.10187301  0.15195850     0.35600
C1310       C  0.61536572  0.09044734  0.18083410    -0.26400
C1311       C  0.61862470  0.10051360  0.21400639    -0.15600
C1312       C  0.63618917  0.12010317  0.21863953     0.36700
N1313       N  0.64078163  0.13004550  0.25241718    -0.89900
H1314       H  0.65776422  0.14890915  0.19295378     0.17800
H1315       H  0.60213981  0.07524364  0.17691251     0.17800
N1316       N  0.62184021  0.09217681  0.11823987    -0.88900
H1317       H  0.65319363  0.14525022  0.25123907     0.35200
H1318       H  0.64968896  0.11589893  0.26664095     0.40300
H1319       H  0.60255713  0.09078332  0.11501844     0.39900
H1320       H  0.62902416  0.07383205  0.11724800     0.34800
C1321       C  0.93277995  0.12662290  0.43350329    -0.26900
C1322       C  0.92894219  0.15226505  0.44072986    -0.15000
C1323       C  0.94938087  0.16721940  0.45096045     0.35600
C1324       C  0.97318612  0.15628439  0.45389974    -0.26400
C1325       C  0.97713676  0.13066359  0.44607596    -0.15600
C1326       C  0.95659551  0.11576839  0.43580358     0.36700
N1327       N  0.95962309  0.08941409  0.42860183    -0.89900
H1328       H  0.91724821  0.11496275  0.42549898     0.17800
H1329       H  0.98864660  0.16792397  0.46231642     0.17800
N1330       N  0.94592711  0.19336028  0.45916115    -0.88900
H1331       H  0.95361911  0.08614773  0.40340182     0.35200
H1332       H  0.94802138  0.07924994  0.44522212     0.40300
H1333       H  0.95757998  0.20400786  0.44318759     0.39900
H1334       H  0.94691151  0.20372979  0.97334547     0.34800
C1335       C  0.88374062  0.09328243  0.32351013    -0.26900
C1336       C  0.87931349  0.10212955  0.28989523    -0.15000
C1337       C  0.86049326  0.12037228  0.28495912     0.35600
C1338       C  0.84870515  0.13155175  0.31363107    -0.26400
C1339       C  0.85521500  0.12471077  0.34746719    -0.15600
C1340       C  0.87169264  0.10419041  0.35225771     0.36700
N1341       N  0.87834002  0.09653020  0.38652682    -0.89900
H1342       H  0.89843653  0.07954063  0.32762918     0.17800
H1343       H  0.83637813  0.14750430  0.30948968     0.17800
N1344       N  0.85529025  0.12960940  0.25106437    -0.88900
H1345       H  0.89133036  0.08179845  0.38584943     0.35200
H1346       H  0.86228269  0.08927983  0.39815302     0.40300
H1347       H  0.85900669  0.14899846  0.25057812     0.39900
H1348       H  0.83625590  0.12708870  0.24633252     0.34800
C1349       C  0.82127712  0.20252033  0.06168145    -0.26900
C1350       C  0.84266320  0.20095969  0.04077151    -0.15000
C1351       C  0.86321645  0.21678235  0.04784868     0.35600
C1352       C  0.86069302  0.23567203  0.07264456    -0.26400
C1353       C  0.83839766  0.23892643  0.09116510    -0.15600
C1354       C  0.81890006  0.22140926  0.08686697     0.36700
N1355       N  0.79632426  0.22369701  0.10654424    -0.89900
H1356       H  0.80534523  0.19066616  0.05580529     0.17800
H1357       H  0.87632282  0.24825061  0.07706983     0.17800
N1358       N  0.88605447  0.21578132  0.02844329    -0.88900
H1359       H  0.78379916  0.20933471  0.10005068     0.35200
H1360       H  0.78782726  0.24074214  0.09959807     0.40300
H1361       H  0.88615578  0.20074992  0.01116887     0.39900
H1362       H  0.90054122  0.21215876  0.04577901     0.34800
C1363       C  0.82380212  0.29288790  0.31533788    -0.26900
C1364       C  0.84624915  0.29359394  0.29661965    -0.15000
C1365       C  0.86569181  0.27707913  0.30583134     0.35600
C1366       C  0.86120228  0.25795847  0.32974337    -0.26400
C1367       C  0.83785928  0.25546524  0.34591046    -0.15600
C1368       C  0.81954706  0.27421107  0.34050537     0.36700
N1369       N  0.79617859  0.27322497  0.35855586    -0.89900
H1370       H  0.80868388  0.30536502  0.30787722     0.17800
H1371       H  0.87604392  0.24465218  0.33534506     0.17800
N1372       N  0.88955640  0.27814516  0.28926683    -0.88900
H1373       H  0.78428190  0.28754262  0.34987806     0.35200
H1374       H  0.79980123  0.27725805  0.38438576     0.40300
H1375       H  0.89691649  0.29621273  0.29306051     0.39900
H1376       H  0.88720205  0.27541193  0.26284640     0.34800
C1377       C  0.75766405  0.19659862  0.99156428    -0.26900
C1378       C  0.76945722  0.17871329  0.48111309    -0.15000
C1379       C  0.75847532  0.15593050  0.49259799     0.35600
C1380       C  0.74036384  0.15636392  0.51914888    -0.26400
C1381       C  0.72748789  0.17387992  0.02739809    -0.15600
C1382       C  0.73950553  0.19658987  0.01770818     0.36700
N1383       N  0.73285815  0.22004177  0.03359939    -0.89900
H1384       H  0.76663583  0.21430978  0.98501621     0.17800
H1385       H  0.73155013  0.13884093  0.52686521     0.17800
N1386       N  0.76556536  0.13240275  0.47703041    -0.88900
H1387       H  0.72663727  0.23239721  0.01441263     0.35200
H1388       H  0.74893231  0.22774703  0.04463859     0.40300
H1389       H  0.76009650  0.13309758  0.45122628     0.39900
H1390       H  0.75585800  0.11738251  0.48826171     0.34800
C1391       C  0.63420684  0.39122754  0.40630744    -0.26900
C1392       C  0.65012293  0.37055206  0.41161905    -0.15000
C1393       C  0.65710585  0.36454188  0.44562969     0.35600
C1394       C  0.64616380  0.37741502  0.47361274    -0.26400
C1395       C  0.62745879  0.39565133  0.46833494    -0.15600
C1396       C  0.62248702  0.40356048  0.43407523     0.36700
N1397       N  0.60388791  0.42233165  0.42642807    -0.89900
H1398       H  0.62870892  0.39605303  0.38034320     0.17800
H1399       H  0.64997628  0.37079331  0.49948997     0.17800
N1400       N  0.67377817  0.34389636  0.45187982    -0.88900
H1401       H  0.61271685  0.43697122  0.41308658     0.35200
H1402       H  0.59689281  0.43040004  0.44895002     0.40300
H1403       H  0.66448156  0.33055630  0.46703671     0.39900
H1404       H  0.68891363  0.35074383  0.46603317     0.34800
C1405       C  0.49460876  0.39502237  0.44255455    -0.26900
C1406       C  0.49884159  0.41825067  0.45908388    -0.15000
C1407       C  0.48107130  0.43762954  0.45552280     0.35600
C1408       C  0.46085735  0.43440441  0.43295966    -0.26400
C1409       C  0.45814226  0.41211634  0.41362011    -0.15600
C1410       C  0.47426703  0.39165559  0.42022111     0.36700
N1411       N  0.47094533  0.36810783  0.40233725    -0.89900
H1412       H  0.50733774  0.37943071  0.44691109     0.17800
H1413       H  0.44895409  0.45048461  0.42744410     0.17800
N1414       N  0.48430014  0.46113819  0.47311469    -0.88900
H1415       H  0.48413399  0.35484549  0.41054781     0.35200
H1416       H  0.47438490  0.37117340  0.37620391     0.40300
H1417       H  0.46840026  0.46438707  0.48802880     0.39900
H1418       H  0.48541608  0.47544556  0.45465375     0.34800
C1419       C  0.54081576  0.38746710  0.17735352    -0.26900
C1420       C  0.55384221  0.40859485  0.16568087    -0.15000
C1421       C  0.55166799  0.43168682  0.18379669     0.35600
C1422       C  0.53285135  0.43445600  0.20853774    -0.26400
C1423       C  0.51683051  0.41429331  0.21585646    -0.15600
C1424       C  0.52231795  0.39011542  0.20237889     0.36700
N1425       N  0.50864342  0.36829840  0.21335338    -0.89900
H1426       H  0.54270515  0.36956511  0.16407435     0.17800
H1427       H  0.52991881  0.45267861  0.22054553     0.17800
N1428       N  0.56687149  0.45314524  0.17538865    -0.88900
H1429       H  0.52134287  0.35523006  0.22342215     0.35200
H1430       H  0.50017518  0.36020576  0.19180425     0.40300
H1431       H  0.58048010  0.44813957  0.15740232     0.39900
H1432       H  0.57656073  0.45829143  0.19764088     0.34800
C1433       C  0.59082945  0.27910650  0.07002777    -0.26900
C1434       C  0.61658946  0.27523795  0.06677917    -0.15000
C1435       C  0.63231236  0.29601368  0.05951942     0.35600
C1436       C  0.62181259  0.31999605  0.05442039    -0.26400
C1437       C  0.59599274  0.32378384  0.05664286    -0.15600
C1438       C  0.58034325  0.30302100  0.06478109     0.36700
N1439       N  0.55389920  0.30568372  0.06881009    -0.89900
H1440       H  0.57871212  0.26335707  0.07622006     0.17800
H1441       H  0.63387117  0.33581450  0.04833659     0.17800
N1442       N  0.65894062  0.29281398  0.05809584    -0.88900
H1443       H  0.54605833  0.31089078  0.04524571     0.35200
H1444       H  0.55042733  0.31985294  0.08689637     0.40300
H1445       H  0.66497288  0.28772225  0.08273957     0.39900
H1446       H  0.66773923  0.30989837  0.05216542     0.34800
C1447       C  0.46530738  0.35704327  0.02397505    -0.26900
C1448       C  0.48121642  0.35928691  0.05245538    -0.15000
C1449       C  0.47424631  0.34888651  0.08436449     0.35600
C1450       C  0.45073174  0.33748648  0.08760470    -0.26400
C1451       C  0.43409015  0.33691105  0.05970173    -0.15600
C1452       C  0.44165895  0.34628592  0.02746994     0.36700
N1453       N  0.42514829  0.34546033  0.99848911    -0.89900
H1454       H  0.47069511  0.36492962  0.99931782     0.17800
H1455       H  0.44480141  0.33043353  0.11247621     0.17800
N1456       N  0.49081798  0.35044539  0.11336300    -0.88900
H1457       H  0.43394955  0.33533749  0.97886373     0.35200
H1458       H  0.42239910  0.36395559  0.98978163     0.40300
H1459       H  0.50676027  0.33992153  0.10748411     0.39900
H1460       H  0.48276419  0.34197603  0.13498059     0.34800
C1461       C  0.63818818  0.62128876  0.28359975    -0.26900
C1462       C  0.61750350  0.60570317  0.28988229    -0.15000
C1463       C  0.61167658  0.59952685  0.32440180     0.35600
C1464       C  0.62471409  0.61106278  0.35158057    -0.26400
C1465       C  0.64302568  0.62946852  0.34521057    -0.15600
C1466       C  0.65092253  0.63332472  0.31073876     0.36700
N1467       N  0.67037622  0.65094082  0.30222775    -0.89900
H1468       H  0.64282837  0.62635292  0.25734032     0.17800
H1469       H  0.61829012  0.60795962  0.37768564     0.17800
N1470       N  0.59146157  0.58287446  0.33257562    -0.88900
H1471       H  0.68433897  0.64088513  0.28939660     0.35200
H1472       H  0.67872833  0.65811073  0.32444052     0.40300
H1473       H  0.59468043  0.56563727  0.32025682     0.39900
H1474       H  0.57488263  0.59052389  0.32300143     0.34800
C1475       C  0.45221221  0.56941347  0.32275927    -0.26900
C1476       C  0.44903776  0.59296000  0.33901825    -0.15000
C1477       C  0.46317951  0.61364321  0.32765517     0.35600
C1478       C  0.48332751  0.60948223  0.30536715    -0.26400
C1479       C  0.48875470  0.58520111  0.29272760    -0.15600
C1480       C  0.47199213  0.56530733  0.29955635     0.36700
N1481       N  0.47591371  0.54079340  0.28466879    -0.89900
H1482       H  0.44132688  0.55341830  0.33160468     0.17800
H1483       H  0.49519088  0.62524446  0.29837295     0.17800
N1484       N  0.45876924  0.63823630  0.34204388    -0.88900
H1485       H  0.46181423  0.52833656  0.29226451     0.35200
H1486       H  0.49262289  0.53364144  0.29458033     0.40300
H1487       H  0.44075548  0.64370309  0.33489041     0.39900
H1488       H  0.47087346  0.65150221  0.33115634     0.34800
C1489       C  0.50730575  0.61085306  0.05955493    -0.26900
C1490       C  0.50179996  0.58734949  0.04441418    -0.15000
C1491       C  0.51799283  0.56687331  0.05011151     0.35600
C1492       C  0.53781202  0.56953842  0.07339663    -0.26400
C1493       C  0.54157171  0.59230003  0.09136622    -0.15600
C1494       C  0.52719205  0.61356673  0.08275112     0.36700
N1495       N  0.53131349  0.63713500  0.10016902    -0.89900
H1496       H  0.49574502  0.62711277  0.05375231     0.17800
H1497       H  0.54855348  0.55293661  0.08040279     0.17800
N1498       N  0.51348085  0.54296726  0.03408846    -0.88900
H1499       H  0.51868649  0.65081913  0.09156847     0.35200
H1500       H  0.54908902  0.64349539  0.09330391     0.40300
H1501       H  0.50118764  0.53949699  0.54163649     0.39900
H1502       H  0.52940474  0.53805244  0.02009286     0.34800
C1503       C  0.54558572  0.49041511  0.11588833    -0.26900
C1504       C  0.56807922  0.48356953  0.09966616    -0.15000
C1505       C  0.59040719  0.49436596  0.11206281     0.35600
C1506       C  0.58988638  0.51159196  0.13979737    -0.26400
C1507       C  0.56744912  0.51807141  0.15651983    -0.15600
C1508       C  0.54507907  0.50719949  0.14405733     0.36700
N1509       N  0.52158868  0.51355996  0.15930456    -0.89900
H1510       H  0.52822885  0.48188008  0.10759834     0.17800
H1511       H  0.60721669  0.52018262  0.14806377     0.17800
N1512       N  0.61372851  0.48805235  0.09635271    -0.88900
H1513       H  0.51324296  0.49687194  0.16796290     0.35200
H1514       H  0.51019475  0.52134894  0.14019240     0.40300
H1515       H  0.62537446  0.48047085  0.11532226     0.39900
H1516       H  0.62187757  0.50474161  0.08736166     0.34800
C1517       C  0.85730503  0.61268879  0.20706670    -0.26900
C1518       C  0.87818632  0.59707308  0.20227120    -0.15000
C1519       C  0.88716584  0.59345320  0.16847404     0.35600
C1520       C  0.87697954  0.60733653  0.14091131    -0.26400
C1521       C  0.85878243  0.62587044  0.14675216    -0.15600
C1522       C  0.84782405  0.62751745  0.17973158     0.36700
N1523       N  0.82837480  0.64564480  0.18582561    -0.89900
H1524       H  0.85043651  0.61575787  0.23292522     0.17800
H1525       H  0.88537291  0.60567374  0.11567360     0.17800
N1526       N  0.90844910  0.57762652  0.16272890    -0.88900
H1527       H  0.82243552  0.64477243  0.21141449     0.35200
H1528       H  0.81308929  0.64044180  0.17070801     0.40300
H1529       H  0.92265671  0.58872529  0.15215898     0.39900
H1530       H  0.90352894  0.56395217  0.14458521     0.34800
C1531       C  0.03931136  0.57030373  0.17878634    -0.26900
C1532       C  0.02890822  0.57733171  0.14714300    -0.15000
C1533       C  0.00328431  0.57215969  0.14080731     0.35600
C1534       C  0.98822578  0.56331396  0.16719149    -0.26400
C1535       C  0.99757276  0.56113261  0.20044614    -0.15600
C1536       C  0.02365423  0.56239040  0.20582869     0.36700
N1537       N  0.03398430  0.55778583  0.23922959    -0.89900
H1538       H  0.05903028  0.57313412  0.18351239     0.17800
H1539       H  0.96833776  0.56154649  0.16259477     0.17800
N1540       N  0.99182358  0.57759403  0.10827717    -0.88900
H1541       H  0.04714296  0.54330224  0.23694315     0.35200
H1542       H  0.04332827  0.57407787  0.24723110     0.40300
H1543       H  0.97788734  0.59111440  0.11221268     0.39900
H1544       H  0.98316508  0.56121393  0.09926887     0.34800
C1545       C  0.96568690  0.61198509  0.40263610    -0.26900
C1546       C  0.95017008  0.59086139  0.40273856    -0.15000
C1547       C  0.95392235  0.57159564  0.42743359     0.35600
C1548       C  0.97422491  0.57316582  0.44996455    -0.26400
C1549       C  0.99110997  0.59339270  0.44812125    -0.15600
C1550       C  0.98663008  0.61313717  0.42398445     0.36700
N1551       N  0.00343589  0.63421160  0.42073458    -0.89900
H1552       H  0.96325355  0.62622879  0.38280629     0.17800
H1553       H  0.97686811  0.55829347  0.46879671     0.17800
N1554       N  0.93835477  0.54949386  0.42874580    -0.88900
H1555       H  0.99738629  0.64686402  0.40180003     0.35200
H1556       H  0.02065096  0.62716223  0.41259054     0.40300
H1557       H  0.92363774  0.55092239  0.41121719     0.39900
H1558       H  0.93015039  0.54888070  0.45312498     0.34800
C1559       C  0.88153041  0.40177229  0.06904745    -0.26900
C1560       C  0.87646268  0.39261985  0.03584721    -0.15000
C1561       C  0.85908898  0.37276295  0.03214811     0.35600
C1562       C  0.84946619  0.36062173  0.06167899    -0.26400
C1563       C  0.85671474  0.36802316  0.09494070    -0.15600
C1564       C  0.87185413  0.38973747  0.09846290     0.36700
N1565       N  0.87981378  0.39834621  0.13160899    -0.89900
H1566       H  0.89528445  0.41657441  0.07231942     0.17800
H1567       H  0.83824646  0.34373979  0.05868685     0.17800
N1568       N  0.85370022  0.36303795  0.99844433    -0.88900
H1569       H  0.88965246  0.38380234  0.14377660     0.35200
H1570       H  0.86392885  0.40236923  0.14619924     0.40300
H1571       H  0.84573014  0.37805725  0.48266175     0.39900
H1572       H  0.84131537  0.34782627  0.99999241     0.34800
C1573       C  0.02311229  0.43292561  0.04090020    -0.26900
C1574       C  0.00536971  0.41350804  0.03873023    -0.15000
C1575       C  0.00902381  0.39117095  0.05807791     0.35600
C1576       C  0.02882842  0.38956167  0.08134096    -0.26400
C1577       C  0.04466623  0.41012209  0.08656033    -0.15600
C1578       C  0.04262647  0.43154480  0.06507651     0.36700
N1579       N  0.05930466  0.45249028  0.06983048    -0.89900
H1580       H  0.02105096  0.44962497  0.02499596     0.17800
H1581       H  0.03005438  0.37323670  0.09815980     0.17800
N1582       N  0.99241675  0.37012156  0.05461084    -0.88900
H1583       H  0.05518974  0.46695599  0.05237986     0.35200
H1584       H  0.07730460  0.44620936  0.06402974     0.40300
H1585       H  0.98443747  0.36649164  0.07864744     0.39900
H1586       H  0.00291152  0.35431906  0.04749751     0.34800
C1587       C  0.97587968  0.42908724  0.29233849    -0.26900
C1588       C  0.99820650  0.41517630  0.29432681    -0.15000
C1589       C  0.99990170  0.39529905  0.31869909     0.35600
C1590       C  0.98009144  0.39063579  0.34121742    -0.26400
C1591       C  0.95888159  0.40597518  0.34122504    -0.15600
C1592       C  0.95638596  0.42498569  0.31597014     0.36700
N1593       N  0.93435366  0.44049340  0.31511329    -0.89900
H1594       H  0.97390209  0.44369952  0.27298889     0.17800
H1595       H  0.98248702  0.37656928  0.36128441     0.17800
N1596       N  0.02183325  0.37991287  0.32126499    -0.88900
H1597       H  0.93537573  0.45355010  0.29495424     0.35200
H1598       H  0.93372999  0.45102529  0.33777527     0.40300
H1599       H  0.02892753  0.38159869  0.34622703     0.39900
H1600       H  0.01663403  0.36108429  0.31750260     0.34800
C1601       C  0.91047443  0.30283996  0.47609884    -0.26900
C1602       C  0.91177745  0.31910147  0.44752832    -0.15000
C1603       C  0.90227881  0.31113364  0.41562099     0.35600
C1604       C  0.89155633  0.28718876  0.41274729    -0.26400
C1605       C  0.88942176  0.27126685  0.44146256    -0.15600
C1606       C  0.89905104  0.27900183  0.47345770     0.36700
N1607       N  0.89711644  0.26272210  0.50294935    -0.89900
H1608       H  0.91754030  0.30913827  0.50076027     0.17800
H1609       H  0.88406385  0.28136419  0.38812682     0.17800
N1610       N  0.90341899  0.32733978  0.38610563    -0.88900
H1611       H  0.90494700  0.27133664  0.52459538     0.35200
H1612       H  0.90780190  0.24661447  0.49795105     0.40300
H1613       H  0.88521935  0.33021403  0.37722500     0.39900
H1614       H  0.91334491  0.31795183  0.36682170     0.34800
C1615       C  0.94698559  0.48823969  0.38875833    -0.26900
C1616       C  0.92452784  0.48043128  0.40406985    -0.15000
C1617       C  0.90179670  0.48870439  0.38909636     0.35600
C1618       C  0.90212453  0.50465995  0.36011494    -0.26400
C1619       C  0.92462594  0.51180106  0.34421630    -0.15600
C1620       C  0.94726226  0.50324965  0.35890750     0.36700
N1621       N  0.97076569  0.51013219  0.34409556    -0.89900
H1622       H  0.96461857  0.48151394  0.39890732     0.17800
H1623       H  0.88457396  0.51154286  0.34991136     0.17800
N1624       N  0.87807417  0.48161677  0.40303150    -0.88900
H1625       H  0.98029210  0.49353664  0.33775830     0.35200
H1626       H  0.98116032  0.51967829  0.36276056     0.40300
H1627       H  0.87785996  0.48616567  0.42918960     0.39900
H1628       H  0.87566450  0.46215667  0.40031931     0.34800
C1629       C  0.04569105  0.38251140  0.46239704    -0.26900
C1630       C  0.02547430  0.37083769  0.44622302    -0.15000
C1631       C  0.02898718  0.34882590  0.42688657     0.35600
C1632       C  0.05316276  0.33904979  0.42343072    -0.26400
C1633       C  0.07388988  0.35087005  0.43909341    -0.15600
C1634       C  0.06980650  0.37292766  0.45906629     0.36700
N1635       N  0.07694853  0.34586554  0.99603078    -0.89900
H1636       H  0.04268227  0.39934590  0.47772797     0.17800
H1637       H  0.05574463  0.32223483  0.40800055     0.17800
N1638       N  0.00811228  0.33681224  0.41042594    -0.88900
H1639       H  0.09202255  0.35819826  0.99347550     0.35200
H1640       H  0.08347727  0.32735375  0.99871399     0.40300
H1641       H  0.99618881  0.33023206  0.42973547     0.39900
H1642       H  0.01396785  0.32095026  0.39661303     0.34800
C1643       C  0.05828040  0.64616245  0.27293243    -0.26900
C1644       C  0.06769658  0.65115895  0.30565556    -0.15000
C1645       C  0.05493550  0.64233962  0.33497619     0.35600
C1646       C  0.03273937  0.62855519  0.33107133    -0.26400
C1647       C  0.02283756  0.62405800  0.29830234    -0.15600
C1648       C  0.03589995  0.63288511  0.26895895     0.36700
N1649       N  0.02677306  0.62797556  0.23495901    -0.89900
H1650       H  0.06835125  0.65255815  0.25036582     0.17800
H1651       H  0.02299568  0.62171237  0.35355916     0.17800
N1652       N  0.06466536  0.64717884  0.36866097    -0.88900
H1653       H  0.02395443  0.64531488  0.22264158     0.35200
H1654       H  0.04056548  0.61818796  0.22142792     0.40300
H1655       H  0.06735112  0.62985126  0.38106521     0.39900
H1656       H  0.05123934  0.65729837  0.38243673     0.34800
C1657       C  0.14566087  0.63670468  0.43520059    -0.26900
C1658       C  0.13833463  0.62736348  0.40287338    -0.15000
C1659       C  0.12229126  0.60627526  0.40168851     0.35600
C1660       C  0.11134026  0.59724660  0.43240548    -0.26400
C1661       C  0.11621216  0.60881566  0.46431122    -0.15600
C1662       C  0.13493859  0.62748187  0.46594332     0.36700
N1663       N  0.14065675  0.63920182  0.49831815    -0.89900
H1664       H  0.15770716  0.65312630  0.43621590     0.17800
H1665       H  0.09691811  0.58295012  0.43096548     0.17800
N1666       N  0.11553059  0.59548881  0.36905786    -0.88900
H1667       H  0.15405222  0.65335734  0.49508945     0.35200
H1668       H  0.14909930  0.60755397  0.00170741     0.40300
H1669       H  0.10543930  0.60899080  0.35519244     0.39900
H1670       H  0.10361359  0.58007291  0.37258135     0.34800
C1671       C  0.11769659  0.78952008  0.27899869    -0.26900
C1672       C  0.11243085  0.77649694  0.30966599    -0.15000
C1673       C  0.09914638  0.78927586  0.33584042     0.35600
C1674       C  0.09203571  0.81463348  0.33115110    -0.26400
C1675       C  0.09718670  0.82744452  0.30034452    -0.15600
C1676       C  0.10969358  0.81449889  0.27378385     0.36700
N1677       N  0.11470164  0.82675373  0.24164294    -0.89900
H1678       H  0.12835885  0.78031736  0.25902015     0.17800
H1679       H  0.08200753  0.82421339  0.35153250     0.17800
N1680       N  0.09334281  0.77691386  0.36762108    -0.88900
H1681       H  0.10575978  0.81654985  0.22222737     0.35200
H1682       H  0.13388975  0.82578898  0.23705775     0.40300
H1683       H  0.07397124  0.77713867  0.37070881     0.39900
H1684       H  0.10115703  0.78747743  0.38760100     0.34800
C1685       C  0.36747822  0.61269494  0.09802101    -0.26900
C1686       C  0.34981330  0.63199265  0.09292823    -0.15000
C1687       C  0.34234672  0.63760724  0.05877846     0.35600
C1688       C  0.35469472  0.62612710  0.03071824    -0.26400
C1689       C  0.37470344  0.60944737  0.03590977    -0.15600
C1690       C  0.38024518  0.60181508  0.07004385     0.36700
N1691       N  0.39996298  0.58427642  0.07711916    -0.89900
H1692       H  0.37356257  0.60814471  0.12389212     0.17800
H1693       H  0.35051491  0.63238093  0.00478328     0.17800
N1694       N  0.32360911  0.65652824  0.05272267    -0.88900
H1695       H  0.41677652  0.59180602  0.06821279     0.35200
H1696       H  0.39632174  0.56765011  0.06353937     0.40300
H1697       H  0.30688576  0.64982338  0.06310456     0.39900
H1698       H  0.32059347  0.65894589  0.02634562     0.34800
C1699       C  0.45710340  0.64225439  0.22591576    -0.26900
C1700       C  0.46917061  0.63131937  0.19740185    -0.15000
C1701       C  0.45584311  0.62833147  0.16634560     0.35600
C1702       C  0.43084849  0.63597834  0.16472332    -0.26400
C1703       C  0.41885367  0.64715652  0.19306528    -0.15600
C1704       C  0.43220783  0.65015674  0.22409282     0.36700
N1705       N  0.42134790  0.66184349  0.25372719    -0.89900
H1706       H  0.46696927  0.64443974  0.25004550     0.17800
H1707       H  0.42079162  0.63379410  0.14070557     0.17800
N1708       N  0.46779736  0.61801835  0.13636248    -0.88900
H1709       H  0.40597763  0.65112890  0.26149496     0.35200
H1710       H  0.41527582  0.67994614  0.24691988     0.40300
H1711       H  0.48176007  0.63067745  0.12895884     0.39900
H1712       H  0.45530402  0.61692670  0.11574926     0.34800
C1713       C  0.26014929  0.66113040  0.24211454    -0.26900
C1714       C  0.26577668  0.68473320  0.22705389    -0.15000
C1715       C  0.25089561  0.70583068  0.23685631     0.35600
C1716       C  0.23248657  0.70319476  0.26214742    -0.26400
C1717       C  0.22729134  0.67983790  0.27759081    -0.15600
C1718       C  0.24087089  0.65850404  0.26672223     0.36700
N1719       N  0.23548369  0.63422263  0.28113771    -0.89900
H1720       H  0.27122327  0.64470199  0.23559464     0.17800
H1721       H  0.22131874  0.71957039  0.26871789     0.17800
N1722       N  0.25304484  0.73005391  0.22064421    -0.88900
H1723       H  0.25174786  0.62739161  0.29273729     0.35200
H1724       H  0.23083681  0.62204715  0.26098302     0.40300
H1725       H  0.26970530  0.73856672  0.22803145     0.39900
H1726       H  0.25264462  0.72767188  0.19395562     0.34800
C1727       C  0.41371221  0.77800359  0.15469181    -0.26900
C1728       C  0.40498487  0.76444128  0.18330228    -0.15000
C1729       C  0.40683416  0.77520288  0.21627625     0.35600
C1730       C  0.41569037  0.79991649  0.21997945    -0.26400
C1731       C  0.42198824  0.81441012  0.19107511    -0.15600
C1732       C  0.42199360  0.80314252  0.15824525     0.36700
N1733       N  0.42985603  0.81742117  0.12874655    -0.89900
H1734       H  0.41231439  0.76969126  0.12932678     0.17800
H1735       H  0.41618434  0.80834391  0.24537463     0.17800
N1736       N  0.39838571  0.76146644  0.24585057    -0.88900
H1737       H  0.42874729  0.80636729  0.10653334     0.35200
H1738       H  0.44872251  0.82171596  0.13218199     0.40300
H1739       H  0.38422249  0.77192892  0.25762817     0.39900
H1740       H  0.41325703  0.76007313  0.26315845     0.34800
C1741       C  0.04749361  0.82727966  0.09391222    -0.26900
C1742       C  0.06135524  0.82044129  0.06483458    -0.15000
C1743       C  0.05016423  0.82141447  0.03196432     0.35600
C1744       C  0.02594834  0.83103773  0.02864334    -0.26400
C1745       C  0.01333647  0.84062005  0.05742045    -0.15600
C1746       C  0.02378826  0.83790035  0.09035780     0.36700
N1747       N  0.01099904  0.84749919  0.11995140    -0.89900
H1748       H  0.05595226  0.82650157  0.11923902     0.17800
H1749       H  0.01795775  0.83322189  0.00319392     0.17800
N1750       N  0.06313986  0.81338763  0.00168242    -0.88900
H1751       H  0.00865419  0.83263348  0.13738645     0.35200
H1752       H  0.02236718  0.86109118  0.13155398     0.40300
H1753       H  0.06867960  0.79462519  0.00523126     0.39900
H1754       H  0.07703053  0.82497839  0.50263945     0.34800
C1755       C  0.10231418  0.90651655  0.17320148    -0.26900
C1756       C  0.11279980  0.90304070  0.20622438    -0.15000
C1757       C  0.13474672  0.88841945  0.20887729     0.35600
C1758       C  0.14324073  0.87454396  0.18016461    -0.26400
C1759       C  0.13064190  0.87554591  0.14840172    -0.15600
C1760       C  0.11068736  0.89270405  0.14466321     0.36700
N1761       N  0.09704309  0.89466577  0.11306536    -0.89900
H1762       H  0.08572552  0.91802325  0.17017599     0.17800
H1763       H  0.15864152  0.86148657  0.18342784     0.17800
N1764       N  0.14753606  0.88628198  0.24109549    -0.88900
H1765       H  0.08960279  0.87694829  0.10709388     0.35200
H1766       H  0.10950653  0.89980328  0.09360659     0.40300
H1767       H  0.16592056  0.89227616  0.23741043     0.39900
H1768       H  0.14802407  0.86727351  0.24824823     0.34800
C1769       C  0.18012952  0.72812053  0.16454229    -0.26900
C1770       C  0.16395494  0.74900866  0.16452721    -0.15000
C1771       C  0.14080455  0.74679759  0.18195088     0.35600
C1772       C  0.13597818  0.72553020  0.20245983    -0.26400
C1773       C  0.15378480  0.70638598  0.20613332    -0.15600
C1774       C  0.17516702  0.70690487  0.18518699     0.36700
N1775       N  0.19282639  0.68665658  0.18699146    -0.89900
H1776       H  0.19727557  0.72869099  0.14982077     0.17800
H1777       H  0.11944534  0.72538786  0.21853188     0.17800
N1778       N  0.12209922  0.76603433  0.17905700    -0.88900
H1779       H  0.19479535  0.67916965  0.16227291     0.35200
H1780       H  0.21004024  0.69418297  0.19423514     0.40300
H1781       H  0.11794919  0.77266707  0.20363177     0.39900
H1782       H  0.10591435  0.75774166  0.16918855     0.34800
C1783       C  0.17774318  0.77951215  0.44974776    -0.26900
C1784       C  0.15458988  0.78546906  0.46499920    -0.15000
C1785       C  0.13274305  0.77369616  0.45317589     0.35600
C1786       C  0.13475066  0.75505742  0.42788301    -0.26400
C1787       C  0.15805272  0.74825481  0.41410649    -0.15600
C1788       C  0.17960508  0.76100365  0.42440424     0.36700
N1789       N  0.20345084  0.75437396  0.41044946    -0.89900
H1790       H  0.19476552  0.78819210  0.45900788     0.17800
H1791       H  0.11800143  0.74565985  0.41895182     0.17800
N1792       N  0.10888854  0.77971940  0.46792291    -0.88900
H1793       H  0.21496027  0.74864377  0.43073922     0.35200
H1794       H  0.21125419  0.77059364  0.39949100     0.40300
H1795       H  0.10902573  0.77358314  0.49349362     0.39900
H1796       H  0.09467861  0.76965770  0.45562780     0.34800
C1797       C  0.11450788  0.68556336  0.03585933    -0.26900
C1798       C  0.10473533  0.67137096  0.06331888    -0.15000
C1799       C  0.10735404  0.68069164  0.09724922     0.35600
C1800       C  0.11839185  0.70434721  0.10259621    -0.26400
C1801       C  0.12738397  0.71880012  0.07490231    -0.15600
C1802       C  0.12574604  0.70905614  0.04131600     0.36700
N1803       N  0.13436873  0.72344787  0.01243528    -0.89900
H1804       H  0.11288673  0.67866445  0.00970535     0.17800
H1805       H  0.11976666  0.71157886  0.12858451     0.17800
N1806       N  0.09824992  0.66714060  0.12658369    -0.88900
H1807       H  0.11934130  0.72605563  0.99565062     0.35200
H1808       H  0.14786078  0.71277972  0.99956884     0.40300
H1809       H  0.10767350  0.64989415  0.12819348     0.39900
H1810       H  0.07919498  0.66372951  0.12326376     0.34800
C1811       C  0.41954102  0.86389665  0.44552740    -0.26900
C1812       C  0.41735963  0.83930694  0.43258515    -0.15000
C1813       C  0.43911070  0.82636414  0.42173971     0.35600
C1814       C  0.46259517  0.83826703  0.42465929    -0.26400
C1815       C  0.46450803  0.86307068  0.43701120    -0.15600
C1816       C  0.44276384  0.87591419  0.44742245     0.36700
N1817       N  0.45697556  0.91549574  0.95155598    -0.89900
H1818       H  0.41497672  0.88944721  0.95150299     0.17800
H1819       H  0.47937746  0.82830308  0.41710097     0.17800
N1820       N  0.43728333  0.80122213  0.40804864    -0.88900
H1821       H  0.44828933  0.92185198  0.97401546     0.35200
H1822       H  0.44726534  0.92293899  0.93052247     0.40300
H1823       H  0.43076784  0.78945416  0.42771017     0.39900
H1824       H  0.45490404  0.79446500  0.40110218     0.34800
C1825       C  0.37081018  0.88482467  0.34282338    -0.26900
C1826       C  0.35187635  0.86714468  0.33628293    -0.15000
C1827       C  0.34442326  0.86328538  0.30178215     0.35600
C1828       C  0.35781138  0.87463322  0.27460541    -0.26400
C1829       C  0.37890826  0.88956834  0.28113685    -0.15600
C1830       C  0.38439816  0.89604084  0.31580255     0.36700
N1831       N  0.40472729  0.91255415  0.32457499    -0.89900
H1832       H  0.37679203  0.88814169  0.36907141     0.17800
H1833       H  0.35325455  0.86954975  0.24834733     0.17800
N1834       N  0.32419488  0.84653616  0.29416549    -0.88900
H1835       H  0.39727794  0.92767728  0.33846574     0.35200
H1836       H  0.41265853  0.92054572  0.30257955     0.40300
H1837       H  0.33096852  0.83202361  0.27851456     0.39900
H1838       H  0.31086853  0.85663540  0.28011234     0.34800
C1839       C  0.30359731  0.75835661  0.30076328    -0.26900
C1840       C  0.30083431  0.74904224  0.33401396    -0.15000
C1841       C  0.30349434  0.72283756  0.33979085     0.35600
C1842       C  0.31319837  0.70723231  0.31364534    -0.26400
C1843       C  0.32100686  0.71790968  0.28246415    -0.15600
C1844       C  0.31471204  0.74354427  0.27542866     0.36700
N1845       N  0.32126630  0.75539523  0.24349917    -0.89900
H1846       H  0.30142767  0.77845047  0.29606815     0.17800
H1847       H  0.31691177  0.68749609  0.31900314     0.17800
N1848       N  0.29915400  0.71265210  0.37337472    -0.88900
H1849       H  0.30520190  0.76323789  0.23263089     0.35200
H1850       H  0.33358880  0.77020622  0.24876217     0.40300
H1851       H  0.31574858  0.70435597  0.38188671     0.39900
H1852       H  0.28580214  0.69836284  0.37111583     0.34800
C1853       C  0.31032975  0.79217168  0.06236457    -0.26900
C1854       C  0.33350712  0.80192630  0.05114856    -0.15000
C1855       C  0.35518934  0.79615864  0.06947188     0.35600
C1856       C  0.35398707  0.77805275  0.09545851    -0.26400
C1857       C  0.33153411  0.76540201  0.10292097    -0.15600
C1858       C  0.30916154  0.77360932  0.08804970     0.36700
N1859       N  0.28595149  0.76155088  0.09657424    -0.89900
H1860       H  0.29345404  0.79701567  0.04845529     0.17800
H1861       H  0.37109408  0.77244813  0.10810504     0.17800
N1862       N  0.37873766  0.80665938  0.05958861    -0.88900
H1863       H  0.27142058  0.76909559  0.08183037     0.35200
H1864       H  0.28189070  0.76594186  0.12217381     0.40300
H1865       H  0.39071772  0.79180892  0.05313641     0.39900
H1866       H  0.38620263  0.81592415  0.08096314     0.34800
C1867       C  0.23672743  0.83640088  0.45999303    -0.26900
C1868       C  0.26115088  0.83770455  0.47259851    -0.15000
C1869       C  0.26673781  0.84648261  0.01865629     0.35600
C1870       C  0.24557241  0.84354530  0.03962098    -0.26400
C1871       C  0.22235829  0.83780009  0.02544753    -0.15600
C1872       C  0.21598516  0.83952836  0.48207126     0.36700
N1873       N  0.19123694  0.83960579  0.46785763    -0.89900
H1874       H  0.23381293  0.83235955  0.43297062     0.17800
H1875       H  0.24720382  0.84631111  0.06714792     0.17800
N1876       N  0.28868043  0.85628783  0.03475794    -0.88900
H1877       H  0.19180217  0.83707699  0.44119621     0.35200
H1878       H  0.18375301  0.85759857  0.47186457     0.40300
H1879       H  0.29398709  0.87282730  0.02199333     0.39900
H1880       H  0.30290175  0.84307901  0.03309057     0.34800
C1881       C  0.39784794  0.71961144  0.41785775    -0.26900
C1882       C  0.37294238  0.72250024  0.42888434    -0.15000
C1883       C  0.36177214  0.70249569  0.44784185     0.35600
C1884       C  0.37512853  0.68025660  0.45384840    -0.26400
C1885       C  0.39973645  0.67744499  0.44248375    -0.15600
C1886       C  0.41137724  0.69736554  0.42461271     0.36700
N1887       N  0.43671919  0.69479215  0.41300528    -0.89900
H1888       H  0.40683422  0.73468154  0.40363471     0.17800
H1889       H  0.36634165  0.66516247  0.46832713     0.17800
N1890       N  0.33732203  0.70428478  0.46251035    -0.88900
H1891       H  0.44258016  0.71121832  0.40042002     0.35200
H1892       H  0.43715076  0.68030631  0.39475711     0.40300
H1893       H  0.32414790  0.70584341  0.44285232     0.39900
H1894       H  0.33654672  0.72020534  0.47835961     0.34800
C1895       C  0.53382098  0.84632235  0.20900085    -0.26900
C1896       C  0.52903186  0.86988366  0.19343082    -0.15000
C1897       C  0.54840425  0.88194122  0.17504666     0.35600
C1898       C  0.57195522  0.87052577  0.17302365    -0.26400
C1899       C  0.57655138  0.84702709  0.18844019    -0.15600
C1900       C  0.55719012  0.83473445  0.20644026     0.36700
N1901       N  0.56091522  0.81090216  0.22321996    -0.89900
H1902       H  0.51929303  0.83673596  0.22333211     0.17800
H1903       H  0.58666904  0.87994122  0.15880451     0.17800
N1904       N  0.54451262  0.90595972  0.15889138    -0.88900
H1905       H  0.57590582  0.81262192  0.24027367     0.35200
H1906       H  0.56536435  0.79734220  0.20471530     0.40300
H1907       H  0.54833081  0.90402880  0.13264655     0.39900
H1908       H  0.55732623  0.91876873  0.16919843     0.34800
C1909       C  0.68528961  0.77990724  0.33783986    -0.26900
C1910       C  0.66823306  0.75981382  0.33865954    -0.15000
C1911       C  0.64593109  0.76171913  0.31932557     0.35600
C1912       C  0.64225460  0.78232657  0.29738956    -0.26400
C1913       C  0.66096598  0.80038271  0.29293611    -0.15600
C1914       C  0.68195889  0.79998777  0.31468846     0.36700
N1915       N  0.70088542  0.81888857  0.31112098    -0.89900
H1916       H  0.70189022  0.77934989  0.35374007     0.17800
H1917       H  0.62620174  0.78229960  0.28037863     0.17800
N1918       N  0.62713443  0.74252406  0.32120806    -0.88900
H1919       H  0.70311730  0.82770902  0.33496507     0.35200
H1920       H  0.71765043  0.80984298  0.30511703     0.40300
H1921       H  0.62451511  0.73515725  0.29652011     0.39900
H1922       H  0.61043691  0.75100445  0.32893901     0.34800
C1923       C  0.68476902  0.72531868  0.08960861    -0.26900
C1924       C  0.66657998  0.74435135  0.09139855    -0.15000
C1925       C  0.64492399  0.74241495  0.07072013     0.35600
C1926       C  0.64283546  0.72288729  0.04690069    -0.26400
C1927       C  0.66219545  0.70560580  0.04250655    -0.15600
C1928       C  0.68295873  0.70620731  0.06488235     0.36700
N1929       N  0.70271250  0.68809554  0.06220228    -0.89900
H1930       H  0.70092214  0.72592338  0.10635593     0.17800
H1931       H  0.62706574  0.72278960  0.02939164     0.17800
N1932       N  0.62505321  0.76043997  0.07338865    -0.88900
H1933       H  0.71049526  0.68934239  0.03766944     0.35200
H1934       H  0.69497930  0.67008235  0.06497067     0.40300
H1935       H  0.60866502  0.75072077  0.07949857     0.39900
H1936       H  0.62264226  0.76897213  0.04933001     0.34800
C1937       C  0.64407412  0.87666411  0.02890345    -0.26900
C1938       C  0.62646600  0.89606489  0.03325776    -0.15000
C1939       C  0.62166514  0.90488547  0.06694311     0.35600
C1940       C  0.63294024  0.89284191  0.09550957    -0.26400
C1941       C  0.64821677  0.87152309  0.09119060    -0.15600
C1942       C  0.65449138  0.86403721  0.05748542     0.36700
N1943       N  0.66976546  0.84217419  0.05224640    -0.89900
H1944       H  0.64737170  0.86913403  0.00338863     0.17800
H1945       H  0.62750134  0.89828909  0.12130414     0.17800
N1946       N  0.60335463  0.92434244  0.07212923    -0.88900
H1947       H  0.68509576  0.84754926  0.03732681     0.35200
H1948       H  0.65944063  0.82898211  0.03819175     0.40300
H1949       H  0.61015372  0.94083101  0.06066143     0.39900
H1950       H  0.60128934  0.92822410  0.09834179     0.34800
C1951       C  0.59134446  0.72465008  0.18787044    -0.26900
C1952       C  0.61701165  0.72636439  0.19515136    -0.15000
C1953       C  0.62987854  0.70434586  0.20572728     0.35600
C1954       C  0.61705837  0.68117555  0.20739616    -0.26400
C1955       C  0.59145600  0.67941863  0.19989837    -0.15600
C1956       C  0.57832647  0.70158330  0.19075845     0.36700
N1957       N  0.55211978  0.70050911  0.18306266    -0.89900
H1958       H  0.58138166  0.74144808  0.17974352     0.17800
H1959       H  0.62712857  0.66431819  0.21504436     0.17800
N1960       N  0.65611813  0.70524669  0.21333572    -0.88900
H1961       H  0.54575634  0.71806271  0.17434673     0.35200
H1962       H  0.54270136  0.69705656  0.20612545     0.40300
H1963       H  0.66303224  0.68712130  0.21824939     0.39900
H1964       H  0.65824172  0.71532900  0.23625280     0.34800
C1965       C  0.94467458  0.83674617  0.27000690    -0.26900
C1966       C  0.93499620  0.83309312  0.30305989    -0.15000
C1967       C  0.95004529  0.83688318  0.33220836     0.35600
C1968       C  0.97434734  0.84556963  0.32805966    -0.26400
C1969       C  0.98378622  0.85039164  0.29519976    -0.15600
C1970       C  0.96927767  0.84528804  0.26576909     0.36700
N1971       N  0.97900858  0.85049699  0.23204902    -0.89900
H1972       H  0.93294154  0.83342379  0.24776064     0.17800
H1973       H  0.98535727  0.85011519  0.35063273     0.17800
N1974       N  0.94016992  0.83319847  0.36611990    -0.88900
H1975       H  0.96573605  0.84620799  0.21323681     0.35200
H1976       H  0.99404106  0.83828006  0.22796694     0.40300
H1977       H  0.94149841  0.85028833  0.37944628     0.39900
H1978       H  0.95135923  0.81993564  0.37877354     0.34800
C1979       C  0.85609204  0.86627867  0.43163714    -0.26900
C1980       C  0.86667640  0.87064751  0.39908796    -0.15000
C1981       C  0.88533997  0.88917898  0.39598984     0.35600
C1982       C  0.89477680  0.90118263  0.42558951    -0.26400
C1983       C  0.88606369  0.89491727  0.45872405    -0.15600
C1984       C  0.86528534  0.87853846  0.46141292     0.36700
N1985       N  0.85523718  0.87242785  0.49464741    -0.89900
H1986       H  0.84193844  0.85179154  0.43422258     0.17800
H1987       H  0.91065931  0.91369258  0.42290749     0.17800
N1988       N  0.89631418  0.89421168  0.36309909    -0.88900
H1989       H  0.84070503  0.85936929  0.49234836     0.35200
H1990       H  0.84938682  0.89664876  0.01083524     0.40300
H1991       H  0.91538702  0.89023021  0.36464546     0.39900
H1992       H  0.89430395  0.91349590  0.35796173     0.34800
C1993       C  0.85304119  0.75531658  0.17366772    -0.26900
C1994       C  0.82869879  0.75313545  0.16048515    -0.15000
C1995       C  0.81151838  0.77278659  0.16620827     0.35600
C1996       C  0.81820899  0.79292708  0.18770986    -0.26400
C1997       C  0.84174198  0.79354989  0.20369074    -0.22000
C1998       C  0.85979259  0.77565846  0.19451999     0.36700
N1999       N  0.88423194  0.77667673  0.20939579    -0.89900
H2000       H  0.86688624  0.74094271  0.16825991     0.17800
H2001       H  0.80398526  0.80638128  0.19533013     0.17800
N2002       N  0.78681558  0.77149589  0.15227935    -0.88900
H2003       H  0.89721194  0.77721815  0.18934400     0.35200
H2004       H  0.88716269  0.76002763  0.22334237     0.40300
H2005       H  0.78384588  0.78771536  0.13745244     0.39900
H2006       H  0.77415990  0.77180681  0.17274340     0.34800
C2007       C  0.85788745  0.74457817  0.43397452    -0.26900
C2008       C  0.83617946  0.74825070  0.41420985    -0.15000
C2009       C  0.81525132  0.73285308  0.41989246     0.35600
C2010       C  0.81584779  0.71506998  0.44652615    -0.26400
C2011       C  0.83716173  0.71229159  0.46720074    -0.15600
C2012       C  0.85860896  0.72669099  0.46043273     0.36700
N2013       N  0.88227197  0.73404776  0.96990796    -0.89900
H2014       H  0.87437176  0.75583196  0.42891613     0.17800
H2015       H  0.79910706  0.70441654  0.45243243     0.17800
N2016       N  0.79305758  0.73599866  0.39982577    -0.88900
H2017       H  0.89281598  0.74989122  0.96308727     0.35200
H2018       H  0.89237052  0.71825690  0.96174507     0.40300
H2019       H  0.77841057  0.74041087  0.41652884     0.39900
H2020       H  0.78896847  0.71870852  0.38815383     0.34800
C2021       C  0.76726110  0.84370625  0.25712541    -0.26900
C2022       C  0.77370665  0.82117100  0.27438313    -0.15000
C2023       C  0.76128727  0.79861994  0.26428767     0.35600
C2024       C  0.74340845  0.79918593  0.23791467    -0.26400
C2025       C  0.73659317  0.82174988  0.22129525    -0.15600
C2026       C  0.74870427  0.84432871  0.23145000     0.36700
N2027       N  0.74306108  0.86809381  0.21560098    -0.89900
H2028       H  0.77684048  0.86109630  0.26352702     0.17800
H2029       H  0.73392399  0.78175701  0.23138885     0.17800
N2030       N  0.76638305  0.77464258  0.27992502    -0.88900
H2031       H  0.72458459  0.87288442  0.22102146     0.35200
H2032       H  0.74510871  0.86616356  0.18898927     0.40300
H2033       H  0.76259527  0.77584595  0.30624142     0.39900
H2034       H  0.78511442  0.77002413  0.27616537     0.34800
C2035       C  0.87025663  0.70022202  0.29492458    -0.26900
C2036       C  0.88564889  0.71998508  0.30608194    -0.15000
C2037       C  0.91142481  0.71538976  0.31084098     0.35600
C2038       C  0.92096129  0.69086307  0.30555109    -0.26400
C2039       C  0.90525067  0.67091079  0.29569431    -0.15600
C2040       C  0.87974011  0.67588032  0.28982285     0.36700
N2041       N  0.86338580  0.65634617  0.27799465    -0.89900
H2042       H  0.85051427  0.70349690  0.29083977     0.17800
H2043       H  0.94064052  0.68723218  0.30958568     0.17800
N2044       N  0.92781654  0.73561015  0.32069464    -0.88900
H2045       H  0.85567916  0.66216165  0.25457544     0.35200
H2046       H  0.84887123  0.65444598  0.29576596     0.40300
H2047       H  0.92792263  0.74879296  0.30063276     0.39900
H2048       H  0.94612920  0.72905330  0.32321479     0.34800
Fe2049     Fe  0.81570097  0.78854116  0.81816138     1.65800
Fe2050     Fe  0.86512603  0.80276963  0.86954369     1.73200
Fe2051     Fe  0.85066612  0.84086832  0.80264755     1.54400
O2052       O  0.85418138  0.81786097  0.75933000    -0.82300
O2053       O  0.86540037  0.83931540  0.88652099    -0.80600
O2054       O  0.81910869  0.79605998  0.76684740    -0.84800
O2055       O  0.79037511  0.81818830  0.82058795    -0.79700
O2056       O  0.88950718  0.83910990  0.80835492    -0.81400
O2057       O  0.83383652  0.79775120  0.89750800    -0.84200
C2058       C  0.79151487  0.83555243  0.79774905     0.96600
C2059       C  0.83764324  0.80241948  0.74882787     1.04000
O2060       O  0.84401629  0.81083897  0.83030696    -1.13200
O2061       O  0.86756474  0.76526246  0.85516499    -0.75600
O2062       O  0.83994036  0.75824843  0.81299478    -0.79100
O2063       O  0.81239981  0.84589075  0.78995046    -0.79800
C2064       C  0.85864629  0.75162983  0.83122601     0.95500
O2065       O  0.80818359  0.77504294  0.86738993    -0.77700
O2066       O  0.89820999  0.80782019  0.84468721    -0.82900
C2067       C  0.85806770  0.86090690  0.87652210     0.98100
C2068       C  0.90496195  0.82480773  0.82388877     1.04000
O2069       O  0.84898016  0.86490369  0.84634749    -0.78600
C2070       C  0.82199908  0.77754563  0.89347449     1.02300
Fe2071     Fe  0.67764818  0.78644510  0.68679946     1.65800
Fe2072     Fe  0.62715232  0.80318044  0.63869564     1.73200
Fe2073     Fe  0.64724968  0.84176463  0.70155238     1.54400
O2074       O  0.64285172  0.81947458  0.74561323    -0.82300
O2075       O  0.62774139  0.83966206  0.62067552    -0.80600
O2076       O  0.67649259  0.79555751  0.73785672    -0.84800
O2077       O  0.70551620  0.81401826  0.68262580    -0.79700
O2078       O  0.60872283  0.84388090  0.69728798    -0.81400
O2079       O  0.65658576  0.79581682  0.60762147    -0.84200
C2080       C  0.70587005  0.83245696  0.70405308     0.96600
C2081       C  0.65808009  0.80249686  0.75566870     1.04000
O2082       O  0.65071501  0.81065549  0.67526592    -1.13200
O2083       O  0.62367853  0.76560746  0.65373856    -0.75600
O2084       O  0.65174899  0.75783852  0.69490708    -0.79100
O2085       O  0.68576996  0.84409727  0.71199779    -0.79800
C2086       C  0.63273184  0.75146079  0.67718064     0.95500
O2087       O  0.68153373  0.77141951  0.63717118    -0.77700
O2088       O  0.59553288  0.81109409  0.66665186    -0.82900
C2089       C  0.63709922  0.86090896  0.62860342     0.98100
C2090       C  0.59134434  0.83051683  0.68471518     1.04000
O2091       O  0.64925537  0.86461409  0.65672313    -0.78600
C2092       C  0.66819545  0.77531275  0.61066633     1.02300
Fe2093     Fe  0.31945258  0.79067343  0.94384170     1.65800
Fe2094     Fe  0.37226804  0.80858249  0.90204557     1.73200
Fe2095     Fe  0.34615751  0.84788831  0.95948372     1.54400
O2096       O  0.30818605  0.84857204  0.96946218    -0.82300
O2097       O  0.40024420  0.81891463  0.93465317    -0.80600
O2098       O  0.29058775  0.81735387  0.94055998    -0.84800
O2099       O  0.32125999  0.79807390  0.99495611    -0.79700
O2100       O  0.34252271  0.86773079  0.91310280    -0.81400
O2101       O  0.37791807  0.77233526  0.91921156    -0.84200
C2102       C  0.32642373  0.79646651  0.50159506     0.96600
C2103       C  0.28909910  0.83561523  0.96201602     1.04000
O2104       O  0.34568619  0.81562324  0.93465018    -1.13200
O2105       O  0.34793092  0.79628371  0.86563525    -0.75600
O2106       O  0.31617630  0.77834920  0.89328121    -0.79100
O2107       O  0.33094861  0.81907017  0.49172745    -0.79800
C2108       C  0.33150295  0.77928000  0.86829963     0.95500
O2109       O  0.34494621  0.76151684  0.95089469    -0.77700
O2110       O  0.36905428  0.84448111  0.88139997    -0.82900
C2111       C  0.40302216  0.84035573  0.94794098     0.98100
C2112       C  0.35556668  0.86403679  0.88594622     1.04000
O2113       O  0.38439803  0.85376607  0.95616785    -0.78600
C2114       C  0.36618143  0.75670706  0.93785201     1.02300
Fe2115     Fe  0.17834868  0.78863155  0.56817323     1.65800
Fe2116     Fe  0.12945277  0.80224041  0.62002062     1.73200
Fe2117     Fe  0.13992583  0.83778829  0.54949599     1.54400
O2118       O  0.17708412  0.84491150  0.53530838    -0.82300
O2119       O  0.09549922  0.80311412  0.59614522    -0.80600
O2120       O  0.20152427  0.82004150  0.56709713    -0.84800
O2121       O  0.17375714  0.79344566  0.51669784    -0.79700
O2122       O  0.14133911  0.86381152  0.59058854    -0.81400
O2123       O  0.12985470  0.76333067  0.61002473    -0.84200
C2124       C  0.15825702  0.79551648  0.99812188     0.96600
C2125       C  0.19862422  0.83619884  0.54286956     1.04000
O2126       O  0.14887445  0.80952057  0.57907644    -1.13200
O2127       O  0.16208145  0.80239844  0.64570863    -0.75600
O2128       O  0.18724718  0.77769587  0.61842153    -0.79100
O2129       O  0.14054532  0.81012313  0.00732185    -0.79800
C2130       C  0.17439650  0.78237883  0.64490109     0.95500
O2131       O  0.15579530  0.75703471  0.56579957    -0.77700
O2132       O  0.12661093  0.83966359  0.63337596    -0.82900
C2133       C  0.08743872  0.81847103  0.57381669     0.98100
C2134       C  0.13315047  0.86096408  0.62132932     1.04000
O2135       O  0.10165766  0.83330728  0.55707236    -0.78600
C2136       C  0.13848547  0.74955404  0.58584306     1.02300
Fe2137     Fe  0.31736826  0.71992628  0.68449994     1.65800
Fe2138     Fe  0.36751292  0.70061460  0.63994592     1.73200
Fe2139     Fe  0.34852875  0.66588900  0.70713297     1.54400
O2140       O  0.34652272  0.68813223  0.75215320    -0.82300
O2141       O  0.35375315  0.66900029  0.61623987    -0.80600
O2142       O  0.32365101  0.72124937  0.73539154    -0.84800
O2143       O  0.28973896  0.69302586  0.69382277    -0.79700
O2144       O  0.38693976  0.66877523  0.71053073    -0.81400
O2145       O  0.34542555  0.72440432  0.61280696    -0.84200
C2146       C  0.29068164  0.67208928  0.71019219     0.96600
C2147       C  0.33491823  0.70880472  0.75821304     1.04000
O2148       O  0.34390244  0.69508145  0.67724132    -1.13200
O2149       O  0.38063688  0.73240689  0.66489797    -0.75600
O2150       O  0.34339920  0.74890034  0.67911458    -0.79100
O2151       O  0.31053263  0.65898826  0.71264918    -0.79800
C2152       C  0.36698508  0.75086735  0.67480943     0.95500
O2153       O  0.30735444  0.72346426  0.63341221    -0.77700
O2154       O  0.39640597  0.67881983  0.65744663    -0.82900
C2155       C  0.35350368  0.64674660  0.62903345     0.98100
C2156       C  0.40237496  0.66964821  0.68610067     1.04000
O2157       O  0.35207336  0.64247628  0.66186631    -0.78600
C2158       C  0.32334525  0.73233008  0.61278488     1.02300
Fe2159     Fe  0.17732225  0.71730298  0.81087397     1.65800
Fe2160     Fe  0.12691465  0.70283952  0.86009712     1.73200
Fe2161     Fe  0.14328547  0.66488565  0.79476660     1.54400
O2162       O  0.13917711  0.68870499  0.75160252    -0.82300
O2163       O  0.12672748  0.66608968  0.87726081    -0.80600
O2164       O  0.17502254  0.70881946  0.75948605    -0.84800
O2165       O  0.20263858  0.68769969  0.81528102    -0.79700
O2166       O  0.10490565  0.66454329  0.80105704    -0.81400
O2167       O  0.15709239  0.70776879  0.89027074    -0.84200
C2168       C  0.20185684  0.67008454  0.79284663     0.96600
C2169       C  0.15560113  0.70473113  0.74202901     1.04000
O2170       O  0.14897507  0.69499340  0.82217512    -1.13200
O2171       O  0.12526508  0.74071136  0.84577894    -0.75600
O2172       O  0.15356726  0.74787238  0.80450564    -0.79100
O2173       O  0.18114723  0.66054255  0.78339623    -0.79800
C2174       C  0.13528405  0.75495795  0.82316590     0.95500
O2175       O  0.18291027  0.73106616  0.86025718    -0.77700
O2176       O  0.09434118  0.69724303  0.83369725    -0.82900
C2177       C  0.13591992  0.64496333  0.86828034     0.98100
C2178       C  0.08867922  0.67825326  0.81567488     1.04000
O2179       O  0.14597285  0.64127121  0.83867113    -0.78600
C2180       C  0.17034167  0.72713477  0.88725708     1.02300
Fe2181     Fe  0.97009216  0.42275164  0.93756332     1.65800
Fe2182     Fe  0.94936401  0.37675863  0.99030375     1.73200
Fe2183     Fe  0.90939392  0.40400340  0.93360336     1.54400
O2184       O  0.91280677  0.44283497  0.92430660    -0.82300
O2185       O  0.93474774  0.34737774  0.96274389    -0.80600
O2186       O  0.94931249  0.45514988  0.94583620    -0.84800
O2187       O  0.95727197  0.42292584  0.88831963    -0.79700
O2188       O  0.89214778  0.40911842  0.98178084    -0.81400
O2189       O  0.98450257  0.36739142  0.97198173    -0.84200
C2190       C  0.94201480  0.40986292  0.87114852     0.96600
C2191       C  0.92957387  0.45963804  0.92841678     1.04000
O2192       O  0.94282138  0.40122312  0.95397449    -1.13200
O2193       O  0.96474696  0.40994353  0.52419382    -0.75600
O2194       O  0.98855166  0.42480043  0.98452137    -0.79100
O2195       O  0.92393371  0.39784174  0.88462034    -0.79800
C2196       C  0.98485953  0.42123587  0.51725456     0.95500
O2197       O  0.99223110  0.39160087  0.92618330    -0.77700
O2198       O  0.91734482  0.38526420  0.51673242    -0.82900
C2199       C  0.91400325  0.34624943  0.94724030     0.98100
C2200       C  0.89578824  0.39577565  0.00883990     1.04000
O2201       O  0.90200117  0.36565776  0.93744689    -0.78600
C2202       C  0.99776615  0.37333705  0.94613878     1.02300
Fe2203     Fe  0.96601446  0.58205230  0.81840741     1.65800
Fe2204     Fe  0.94264831  0.62607360  0.76490934     1.73200
Fe2205     Fe  0.90400812  0.59681735  0.82072307     1.54400
O2206       O  0.90954195  0.55861838  0.83268885    -0.82300
O2207       O  0.92715275  0.65469900  0.79343218    -0.80600
O2208       O  0.94679705  0.54860710  0.81215661    -0.84800
O2209       O  0.95330344  0.58378366  0.86776867    -0.79700
O2210       O  0.88856834  0.58895183  0.77226002    -0.81400
O2211       O  0.97736021  0.63716741  0.78148860    -0.84200
C2212       C  0.93573723  0.59423273  0.88425840     0.96600
C2213       C  0.92763333  0.54311811  0.82994025     1.04000
O2214       O  0.93760267  0.60159373  0.80142841    -1.13200
O2215       O  0.95860393  0.59925374  0.73419417    -0.75600
O2216       O  0.98294670  0.57820085  0.77085342    -0.79100
O2217       O  0.91698727  0.60464945  0.86991225    -0.79800
C2218       C  0.97734604  0.58538854  0.74070811     0.95500
O2219       O  0.98764367  0.61397913  0.82697485    -0.77700
O2220       O  0.90894807  0.61837946  0.74214570    -0.82900
C2221       C  0.90561503  0.65488697  0.80690107     0.98100
C2222       C  0.89131696  0.60261064  0.74538731     1.04000
O2223       O  0.89405607  0.63464295  0.81449257    -0.78600
C2224       C  0.99198405  0.63195936  0.80605940     1.02300
Fe2225     Fe  0.52939346  0.57583484  0.69174004     1.65800
Fe2226     Fe  0.54989913  0.62433593  0.74063130     1.73200
Fe2227     Fe  0.58996248  0.59485160  0.68766017     1.54400
O2228       O  0.58619688  0.55647698  0.67635801    -0.82300
O2229       O  0.56506830  0.65231044  0.71030997    -0.80600
O2230       O  0.55075829  0.54387489  0.70003929    -0.84800
O2231       O  0.54221900  0.57656776  0.64229284    -0.79700
O2232       O  0.60501717  0.58787670  0.73638814    -0.81400
O2233       O  0.51512822  0.63336593  0.72128127    -0.84200
C2234       C  0.55743102  0.58995002  0.62521792     0.96600
C2235       C  0.56956877  0.53966876  0.68084349     1.04000
O2236       O  0.55628719  0.59819666  0.70693029    -1.13200
O2237       O  0.53373572  0.59913902  0.77351911    -0.75600
O2238       O  0.51171284  0.57391506  0.73936154    -0.79100
O2239       O  0.57551590  0.60209027  0.63882679    -0.79800
C2240       C  0.51447084  0.58608052  0.76728846     0.95500
O2241       O  0.50580991  0.60558223  0.68026966    -0.77700
O2242       O  0.58363315  0.61764837  0.76488481    -0.82900
C2243       C  0.58726189  0.65298797  0.69926828     0.98100
C2244       C  0.60140517  0.60174252  0.76284876     1.04000
O2245       O  0.59956640  0.63291691  0.69352091    -0.78600
C2246       C  0.50070538  0.62509300  0.69794667     1.02300
Fe2247     Fe  0.53193000  0.42667058  0.56107349     1.65800
Fe2248     Fe  0.55290218  0.38015233  0.50919012     1.73200
Fe2249     Fe  0.59122144  0.40489795  0.56980660     1.54400
O2250       O  0.58901555  0.44367814  0.58049456    -0.82300
O2251       O  0.56473409  0.35002557  0.53800882    -0.80600
O2252       O  0.55445807  0.45797919  0.55548728    -0.84800
O2253       O  0.54211448  0.42559038  0.61150146    -0.79700
O2254       O  0.61083359  0.41010798  0.52315964    -0.81400
O2255       O  0.51710580  0.37214422  0.52455626    -0.84200
C2256       C  0.55575977  0.41144956  0.62966815     0.96600
C2257       C  0.57290714  0.46111200  0.57581434     1.04000
O2258       O  0.55883908  0.40411230  0.54631699    -1.13200
O2259       O  0.53691569  0.40947760  0.97658974    -0.75600
O2260       O  0.51583364  0.43008297  0.51274454    -0.79100
O2261       O  0.57373664  0.39851729  0.61730543    -0.79800
C2262       C  0.51633783  0.41976379  0.98442419     0.95500
O2263       O  0.50825168  0.39656840  0.56975002    -0.77700
O2264       O  0.58669459  0.38879370  0.98480887    -0.82900
C2265       C  0.58469088  0.34754394  0.55497981     0.98100
C2266       C  0.60771130  0.39772005  0.49513066     1.04000
O2267       O  0.59742102  0.36634679  0.56515252    -0.78600
C2268       C  0.50313735  0.37860474  0.54929201     1.02300
Fe2269     Fe  0.82039705  0.21839856  0.93991480     1.65800
Fe2270     Fe  0.86619120  0.20049631  0.88573095     1.73200
Fe2271     Fe  0.84369776  0.15880873  0.94377807     1.54400
O2272       O  0.85401949  0.17339346  0.49902532    -0.82300
O2273       O  0.86147117  0.16542300  0.86305695    -0.80600
O2274       O  0.82223406  0.20529168  0.98929598    -0.84800
O2275       O  0.79017692  0.19496740  0.93229205    -0.79700
O2276       O  0.88210246  0.15316898  0.93642986    -0.81400
O2277       O  0.83752679  0.21390480  0.85643526    -0.84200
C2278       C  0.78738772  0.17564640  0.95159674     0.96600
C2279       C  0.84175478  0.19135007  0.51283524     1.04000
O2280       O  0.84333840  0.19246132  0.92280070    -1.13200
O2281       O  0.87337259  0.23646221  0.90411934    -0.75600
O2282       O  0.84946680  0.24282901  0.95031335    -0.79100
O2283       O  0.80526998  0.16002250  0.95647407    -0.79800
C2284       C  0.86690133  0.24951489  0.93006276     0.95500
O2285       O  0.81638019  0.23730952  0.89321419    -0.77700
O2286       O  0.89693687  0.18821712  0.91250057    -0.82900
C2287       C  0.84927641  0.14514356  0.86838571     0.98100
C2288       C  0.90027319  0.16707056  0.92699456     1.04000
O2289       O  0.83741650  0.14090218  0.89641662    -0.78600
C2290       C  0.82655531  0.23429442  0.86407054     1.02300
Fe2291     Fe  0.67436309  0.21917765  0.56819562     1.65800
Fe2292     Fe  0.62669588  0.19851750  0.61741721     1.73200
Fe2293     Fe  0.65517670  0.15847484  0.56295691     1.54400
O2294       O  0.64039303  0.17771831  0.00853061    -0.82300
O2295       O  0.63339468  0.16417034  0.64118804    -0.80600
O2296       O  0.67505059  0.20601556  0.51892585    -0.84800
O2297       O  0.70580474  0.19784017  0.57793242    -0.79700
O2298       O  0.61734009  0.14907674  0.56858891    -0.81400
O2299       O  0.65241178  0.21394057  0.64961227    -0.84200
C2300       C  0.71024407  0.17927127  0.55798201     0.96600
C2301       C  0.65410267  0.19534715  0.99648434     1.04000
O2302       O  0.65214666  0.19206201  0.58321764    -1.13200
O2303       O  0.61794114  0.23414985  0.59800201    -0.75600
O2304       O  0.64473799  0.24166547  0.55526984    -0.79100
O2305       O  0.69344298  0.16274314  0.55205561    -0.79800
C2306       C  0.62623709  0.24795309  0.57371165     0.95500
O2307       O  0.67504397  0.23800942  0.61520999    -0.77700
O2308       O  0.59856787  0.18353131  0.58793338    -0.82900
C2309       C  0.64870272  0.14586041  0.63835483     0.98100
C2310       C  0.59760542  0.16147447  0.57547851     1.04000
O2311       O  0.66192545  0.14221001  0.61135370    -0.78600
C2312       C  0.66333068  0.23454212  0.64321049     1.02300
Fe2313     Fe  0.03319566  0.07914821  0.94611593     1.65800
Fe2314     Fe  0.05246469  0.13504768  0.97840912     1.73200
Fe2315     Fe  0.09143524  0.10075746  0.92834835     1.54400
O2316       O  0.08906936  0.06198709  0.91912379    -0.82300
O2317       O  0.06981326  0.16009316  0.94565618    -0.80600
O2318       O  0.05744938  0.04901830  0.94999789    -0.84800
O2319       O  0.03893844  0.08079934  0.89404759    -0.79700
O2320       O  0.10829208  0.09776277  0.97688410    -0.81400
O2321       O  0.01880545  0.14360586  0.95408657    -0.84200
C2322       C  0.05278555  0.09291655  0.87308884     0.96600
C2323       C  0.07372249  0.04485182  0.92709655     1.04000
O2324       O  0.05891765  0.10494263  0.95122081    -1.13200
O2325       O  0.03978584  0.09481638  0.52659998    -0.75600
O2326       O  0.02489772  0.07666097  0.99807926    -0.79100
O2327       O  0.07295001  0.10447098  0.88143037    -0.79800
C2328       C  0.02009271  0.08233868  0.52139876     0.95500
O2329       O  0.00494187  0.10530816  0.94071984    -0.77700
O2330       O  0.08646759  0.11936784  0.51654971    -0.82900
C2331       C  0.09156208  0.15931371  0.93334060     0.98100
C2332       C  0.10402559  0.11202636  0.00305923     1.04000
O2333       O  0.10232401  0.13842831  0.92828689    -0.78600
C2334       C  0.00151149  0.12891355  0.94376854     1.02300
Fe2335     Fe  0.02217666  0.91546741  0.82271946     1.65800
Fe2336     Fe  0.04674789  0.87677339  0.76391793     1.73200
Fe2337     Fe  0.08536407  0.91048125  0.81701447     1.54400
O2338       O  0.07851839  0.94946986  0.81555268    -0.82300
O2339       O  0.07585636  0.85391725  0.77938645    -0.80600
O2340       O  0.03951175  0.94929071  0.83476668    -0.84800
O2341       O  0.03415337  0.90109970  0.86827351    -0.79700
O2342       O  0.10042542  0.90975979  0.76645631    -0.81400
O2343       O  0.02306299  0.85389514  0.79209664    -0.84200
C2344       C  0.05381699  0.90748169  0.88401304     0.96600
C2345       C  0.06061097  0.96001944  0.83191495     1.04000
O2346       O  0.05161903  0.90132411  0.80073420    -1.13200
O2347       O  0.01616417  0.89578080  0.74464464    -0.75600
O2348       O  0.00768010  0.92948727  0.77712505    -0.79100
O2349       O  0.07433431  0.91224213  0.86879398    -0.79800
C2350       C  0.00349368  0.91552146  0.75109653     0.95500
O2351       O  0.00032268  0.88380447  0.81676860    -0.77700
O2352       O  0.06961236  0.89709123  0.73180275    -0.82900
C2353       C  0.09105796  0.85359694  0.80438781     0.98100
C2354       C  0.09184307  0.90459201  0.73646523     1.04000
O2355       O  0.09529724  0.87276537  0.82317415    -0.78600
C2356       C  0.00338760  0.86120169  0.80711888     1.02300
Fe2357     Fe  0.18557239  0.29113174  0.92458205     1.65800
Fe2358     Fe  0.13453665  0.30972902  0.87686579     1.73200
Fe2359     Fe  0.15149239  0.34328222  0.94735055     1.54400
O2360       O  0.15106334  0.32669444  0.49228606    -0.82300
O2361       O  0.13700015  0.34691556  0.86208386    -0.80600
O2362       O  0.18076071  0.29242390  0.97582861    -0.84800
O2363       O  0.21167953  0.32026983  0.92983774    -0.79700
O2364       O  0.11314182  0.34284933  0.94360477    -0.81400
O2365       O  0.16485729  0.30310098  0.84688107    -0.84200
C2366       C  0.20972331  0.33736176  0.95293920     0.96600
C2367       C  0.16279869  0.30741939  0.50379340     1.04000
O2368       O  0.15717062  0.31482934  0.91608710    -1.13200
O2369       O  0.12965050  0.27207134  0.88986559    -0.75600
O2370       O  0.16150932  0.26017912  0.92344417    -0.79100
O2371       O  0.18899008  0.34796510  0.95943722    -0.79800
C2372       C  0.14060370  0.25588996  0.90886844     0.95500
O2373       O  0.19449932  0.28401263  0.87374042    -0.77700
O2374       O  0.10145430  0.31680459  0.90226695    -0.82900
C2375       C  0.14409997  0.36776051  0.87499284     0.98100
C2376       C  0.09629052  0.33194273  0.92640016     1.04000
O2377       O  0.15236904  0.36973496  0.90599981    -0.78600
C2378       C  0.17751700  0.28340270  0.85133747     1.02300
Fe2379     Fe  0.32532016  0.28350895  0.55792158     1.65800
Fe2380     Fe  0.37474351  0.30074933  0.60603742     1.73200
Fe2381     Fe  0.35047689  0.34183995  0.54874478     1.54400
O2382       O  0.35527584  0.32183201  0.00539558    -0.82300
O2383       O  0.37257922  0.33643581  0.62773373    -0.80600
O2384       O  0.32449159  0.29570172  0.50792226    -0.84800
O2385       O  0.29702319  0.30871376  0.56832811    -0.79700
O2386       O  0.38888530  0.34606664  0.55193692    -0.81400
O2387       O  0.34710434  0.28992904  0.63858656    -0.84200
C2388       C  0.29378878  0.32731794  0.54792417     0.96600
C2389       C  0.33950926  0.30509305  0.99610170     1.04000
O2390       O  0.35032349  0.30871142  0.57097332    -1.13200
O2391       O  0.37979209  0.26390715  0.58817237    -0.75600
O2392       O  0.35244943  0.25715891  0.54569982    -0.79100
O2393       O  0.31179262  0.34198571  0.54012347    -0.79800
C2394       C  0.37099053  0.25030513  0.56400295     0.95500
O2395       O  0.32342540  0.26602615  0.60567967    -0.77700
O2396       O  0.40431481  0.31140545  0.57635759    -0.82900
C2397       C  0.36039355  0.35680347  0.62306183     0.98100
C2398       C  0.40714410  0.33227662  0.56100968     1.04000
O2399       O  0.34722737  0.36086559  0.59606725    -0.78600
C2400       C  0.33469251  0.27003804  0.63379432     1.02300
Fe2401     Fe  0.01641303  0.59047400  0.54780552     1.65800
Fe2402     Fe  0.04759236  0.63494905  0.50723908     1.73200
Fe2403     Fe  0.07742848  0.59914765  0.56729354     1.54400
O2404       O  0.05620706  0.59385273  0.61307027    -0.82300
O2405       O  0.07076886  0.60819243  0.97680064    -0.80600
O2406       O  0.01780401  0.60395450  0.59615381    -0.84800
O2407       O  0.03267643  0.55697946  0.56505328    -0.79700
O2408       O  0.08472541  0.63664660  0.58023914    -0.81400
O2409       O  0.01673033  0.61310824  0.98509467    -0.84200
C2410       C  0.05446002  0.54836802  0.57030721     0.96600
C2411       C  0.03270812  0.59585556  0.61874416     1.04000
O2412       O  0.04771339  0.60768718  0.54032698    -1.13200
O2413       O  0.01910745  0.65421317  0.53272404    -0.75600
O2414       O  0.99415753  0.62092838  0.53532985    -0.79100
O2415       O  0.07352580  0.56045291  0.55966621    -0.79800
C2416       C  0.99747477  0.64459192  0.53559286     0.95500
O2417       O  0.01395698  0.57876494  0.49748755    -0.77700
O2418       O  0.07390675  0.65648327  0.53215343    -0.82900
C2419       C  0.09615976  0.60874142  0.49080646     0.98100
C2420       C  0.08544084  0.65584511  0.56058830     1.04000
O2421       O  0.10043607  0.60280702  0.52245538    -0.78600
C2422       C  0.00236007  0.59414206  0.98887687     1.02300
Fe2423     Fe  0.02248747  0.43415023  0.69052508     1.65800
Fe2424     Fe  0.04368278  0.39267632  0.74930923     1.73200
Fe2425     Fe  0.08347705  0.41601420  0.68990424     1.54400
O2426       O  0.06897095  0.40646885  0.64147773    -0.82300
O2427       O  0.07724008  0.40068237  0.77254840    -0.80600
O2428       O  0.03614887  0.43232444  0.64170052    -0.84800
O2429       O  0.04259040  0.46691553  0.69701291    -0.79700
O2430       O  0.09097084  0.37760557  0.69904554    -0.81400
O2431       O  0.02922459  0.42328726  0.77359567    -0.84200
C2432       C  0.06161483  0.47093273  0.67802855     0.96600
C2433       C  0.05122375  0.41800958  0.62621570     1.04000
O2434       O  0.05005903  0.41405899  0.70976950    -1.13200
O2435       O  0.00891941  0.38167388  0.73094747    -0.75600
O2436       O  0.00189818  0.40188915  0.68140517    -0.79100
O2437       O  0.07922689  0.45461155  0.67562809    -0.79800
C2438       C  0.99634160  0.38516231  0.70362953     0.95500
O2439       O  0.00233080  0.43792245  0.73623425    -0.77700
O2440       O  0.05842791  0.36101496  0.72676294    -0.82900
C2441       C  0.09668138  0.41369798  0.76685357     0.98100
C2442       C  0.07909761  0.35869789  0.71126488     1.04000
O2443       O  0.10060279  0.42454585  0.73777922    -0.78600
C2444       C  0.00727797  0.42962091  0.76601064     1.02300
Fe2445     Fe  0.97604084  0.91105436  0.56777359     1.65800
Fe2446     Fe  0.94771878  0.87170470  0.51369141     1.73200
Fe2447     Fe  0.91304776  0.90671841  0.56850447     1.54400
O2448       O  0.92673844  0.91152031  0.61893774    -0.82300
O2449       O  0.92748044  0.90090056  0.98339973    -0.80600
O2450       O  0.96656842  0.89960457  0.61594095    -0.84800
O2451       O  0.95970164  0.94565677  0.57786071    -0.79700
O2452       O  0.90494430  0.86932590  0.57945306    -0.81400
O2453       O  0.98145860  0.89474944  0.99148980    -0.84200
C2454       C  0.93844339  0.95629427  0.57614729     0.96600
C2455       C  0.94792388  0.90736941  0.63278854     1.04000
O2456       O  0.94552422  0.89691147  0.54979819    -1.13200
O2457       O  0.96999658  0.84810227  0.54275550    -0.75600
O2458       O  0.99575342  0.87779309  0.56254597    -0.79100
O2459       O  0.91977605  0.94530238  0.56206991    -0.79800
C2460       C  0.99055094  0.85488727  0.55607416     0.95500
O2461       O  0.98832089  0.92276442  0.51997218    -0.77700
O2462       O  0.91663437  0.85195072  0.52993394    -0.82900
C2463       C  0.90332893  0.89853099  0.48861532     0.98100
C2464       C  0.90503060  0.85106251  0.55831581     1.04000
O2465       O  0.89530828  0.90276330  0.51926729    -0.78600
C2466       C  0.99503954  0.91390821  0.99743767     1.02300
Fe2467     Fe  0.97060700  0.06891162  0.69484256     1.65800
Fe2468     Fe  0.94961040  0.11412202  0.74884509     1.73200
Fe2469     Fe  0.91244304  0.09328781  0.68434770     1.54400
O2470       O  0.93163768  0.10059508  0.63865939    -0.82300
O2471       O  0.91437428  0.10849719  0.76775623    -0.80600
O2472       O  0.96084187  0.07093394  0.64427347    -0.84800
O2473       O  0.94665745  0.03879141  0.69970777    -0.79700
O2474       O  0.90759442  0.13201865  0.69092518    -0.81400
O2475       O  0.96070406  0.08333076  0.77599462    -0.84200
C2476       C  0.92908609  0.03641851  0.67778924     0.96600
C2477       C  0.94904864  0.08688611  0.62648185     1.04000
O2478       O  0.94412851  0.09244274  0.70928157    -1.13200
O2479       O  0.98576320  0.12263164  0.73339703    -0.75600
O2480       O  0.99509630  0.09847066  0.68800979    -0.79100
O2481       O  0.91380317  0.05446977  0.67189237    -0.79800
C2482       C  0.00011832  0.11635484  0.70874904     0.95500
O2483       O  0.98718812  0.06388906  0.74266344    -0.77700
O2484       O  0.93793256  0.14651016  0.72489406    -0.82900
C2485       C  0.89417510  0.09790101  0.75880673     0.98100
C2486       C  0.91914033  0.14995511  0.70573998     1.04000
O2487       O  0.89117753  0.08742720  0.72935684    -0.78600
C2488       C  0.98217496  0.07458728  0.77083252     1.02300
Fe2489     Fe  0.81457671  0.71872703  0.57018264     1.65800
Fe2490     Fe  0.86404322  0.70298394  0.61889320     1.73200
Fe2491     Fe  0.84471965  0.66367326  0.55678655     1.54400
O2492       O  0.80629441  0.66111878  0.54522595    -0.82300
O2493       O  0.89508553  0.69781839  0.58905235    -0.80600
O2494       O  0.78883509  0.69061629  0.57745342    -0.84800
O2495       O  0.81635962  0.70954207  0.51888536    -0.79700
O2496       O  0.84086091  0.64228296  0.60175949    -0.81400
O2497       O  0.86574159  0.74118004  0.60553419    -0.84200
C2498       C  0.84049866  0.70395722  0.99248785     0.96600
C2499       C  0.78725398  0.67418613  0.55375319     1.04000
O2500       O  0.84137569  0.69524415  0.58183442    -1.13200
O2501       O  0.83416422  0.70827017  0.64995774    -0.75600
O2502       O  0.81027197  0.73327041  0.61940019    -0.79100
O2503       O  0.85684796  0.68872564  0.00403978    -0.79800
C2504       C  0.82205224  0.72850662  0.64689624     0.95500
O2505       O  0.83968236  0.74731909  0.56153305    -0.77700
O2506       O  0.86473098  0.66594990  0.63633464    -0.82900
C2507       C  0.90017598  0.67893122  0.57045420     0.98100
C2508       C  0.85286306  0.64567814  0.62978799     1.04000
O2509       O  0.88358186  0.66292410  0.56160965    -0.78600
C2510       C  0.85718460  0.75480252  0.58111472     1.02300
Fe2511     Fe  0.67745203  0.71833345  0.93795943     1.65800
Fe2512     Fe  0.62731481  0.69879084  0.89359205     1.73200
Fe2513     Fe  0.65440674  0.65960500  0.95030304     1.54400
O2514       O  0.69309385  0.66075783  0.95711802    -0.82300
O2515       O  0.59941792  0.68922317  0.92666132    -0.80600
O2516       O  0.70646067  0.69388240  0.92724976    -0.84800
O2517       O  0.67963732  0.70738321  0.98868304    -0.79700
O2518       O  0.65770930  0.64034252  0.90374987    -0.81400
O2519       O  0.62226016  0.73627171  0.90879165    -0.84200
C2520       C  0.65854148  0.70302901  0.50518075     0.96600
C2521       C  0.71064028  0.67529073  0.94735277     1.04000
O2522       O  0.65301647  0.69226244  0.92726158    -1.13200
O2523       O  0.65370610  0.70846690  0.85865461    -0.75600
O2524       O  0.67730079  0.73419776  0.88890988    -0.79100
O2525       O  0.64438994  0.68610976  0.49254496    -0.79800
C2526       C  0.66575405  0.72877302  0.86133824     0.95500
O2527       O  0.64978740  0.74404260  0.95047728    -0.77700
O2528       O  0.62914462  0.66234920  0.87418304    -0.82900
C2529       C  0.59721828  0.66802840  0.94128107     0.98100
C2530       C  0.64305886  0.64305551  0.87809466     1.04000
O2531       O  0.61599302  0.65423297  0.94832700    -0.78600
C2532       C  0.63098694  0.75041517  0.93239768     1.02300
Fe2533     Fe  0.46661734  0.92587243  0.69306474     1.65800
Fe2534     Fe  0.44638712  0.87965393  0.74605912     1.73200
Fe2535     Fe  0.40605173  0.90663007  0.69004231     1.54400
O2536       O  0.40895976  0.94508985  0.67959508    -0.82300
O2537       O  0.43194864  0.85022035  0.71827702    -0.80600
O2538       O  0.44536871  0.95804662  0.70050163    -0.84800
O2539       O  0.45370702  0.92508997  0.64389849    -0.79700
O2540       O  0.38985612  0.91301971  0.73829057    -0.81400
O2541       O  0.48125868  0.87023504  0.72706827    -0.84200
C2542       C  0.43786238  0.91259199  0.62690473     0.96600
C2543       C  0.42581121  0.96187813  0.68242232     1.04000
O2544       O  0.43966097  0.90413532  0.70982584    -1.13200
O2545       O  0.46171084  0.90673724  0.77666856    -0.75600
O2546       O  0.48499788  0.92849660  0.74008637    -0.79100
O2547       O  0.42008820  0.90027233  0.64082664    -0.79800
C2548       C  0.48158374  0.91843609  0.76937744     0.95500
O2549       O  0.48924717  0.89518810  0.68216884    -0.77700
O2550       O  0.41261279  0.88628333  0.77005309    -0.82900
C2551       C  0.41122014  0.84870961  0.70287836     0.98100
C2552       C  0.39386177  0.90070042  0.76602812     1.04000
O2553       O  0.39868704  0.86824683  0.69480303    -0.78600
C2554       C  0.49467016  0.87657317  0.70151694     1.02300
Fe2555     Fe  0.46697923  0.06642205  0.55815794     1.65800
Fe2556     Fe  0.45232386  0.11879940  0.51163278     1.73200
Fe2557     Fe  0.40937656  0.09312210  0.56384053     1.54400
O2558       O  0.40895162  0.05452938  0.57665391    -0.82300
O2559       O  0.43826904  0.14823936  0.54043383    -0.80600
O2560       O  0.44139462  0.03831452  0.55003336    -0.84800
O2561       O  0.45492400  0.06855978  0.60756920    -0.79700
O2562       O  0.39309854  0.08835767  0.51462535    -0.81400
O2563       O  0.48663014  0.12526692  0.53433084    -0.84200
C2564       C  0.44432500  0.08603441  0.62398095     0.96600
C2565       C  0.42392209  0.03624409  0.57179795     1.04000
O2566       O  0.44300813  0.09258976  0.54392555    -1.13200
O2567       O  0.45859627  0.10136181  0.98732172    -0.75600
O2568       O  0.48204011  0.06088301  0.51044596    -0.79100
O2569       O  0.42675837  0.09966635  0.61143589    -0.79800
C2570       C  0.47522665  0.08466840  0.99192544     0.95500
O2571       O  0.49504739  0.09247482  0.56850955    -0.77700
O2572       O  0.40954391  0.12187741  0.99665765    -0.82900
C2573       C  0.41618403  0.15078447  0.55119688     0.98100
C2574       C  0.39898582  0.10115570  0.48755886     1.04000
O2575       O  0.40283519  0.13163725  0.55777021    -0.78600
C2576       C  0.50080423  0.11377206  0.55544138     1.02300
Fe2577     Fe  0.32237970  0.22277951  0.81289946     1.65800
Fe2578     Fe  0.37247635  0.20415147  0.85853294     1.73200
Fe2579     Fe  0.34694039  0.16460597  0.80120785     1.54400
O2580       O  0.30801184  0.16518590  0.79264050    -0.82300
O2581       O  0.40081748  0.19546682  0.82595157    -0.80600
O2582       O  0.29440453  0.19749396  0.82334958    -0.84800
O2583       O  0.32123816  0.21204424  0.76214573    -0.79700
O2584       O  0.34333637  0.14538578  0.84827106    -0.81400
O2585       O  0.37660744  0.24134656  0.84317807    -0.84200
C2586       C  0.33685429  0.20061435  0.74334270     0.96600
C2587       C  0.29048923  0.18022895  0.80133999     1.04000
O2588       O  0.34733188  0.19725313  0.82423111    -1.13200
O2589       O  0.34579916  0.21372294  0.89297922    -0.75600
O2590       O  0.32137065  0.23832924  0.86161776    -0.79100
O2591       O  0.35122338  0.18324292  0.75451435    -0.79800
C2592       C  0.33325977  0.23366863  0.88910136     0.95500
O2593       O  0.34925090  0.24939250  0.80126549    -0.77700
O2594       O  0.37121728  0.16782296  0.87833993    -0.82900
C2595       C  0.40400603  0.17495468  0.81017786     0.98100
C2596       C  0.35719550  0.14862062  0.87473400     1.04000
O2597       O  0.38582218  0.16017522  0.80354913    -0.78600
C2598       C  0.36773405  0.25567566  0.81993312     1.02300
Fe2599     Fe  0.17152280  0.22856039  0.69317737     1.65800
Fe2600     Fe  0.11937781  0.20832705  0.65159510     1.73200
Fe2601     Fe  0.15025981  0.16864213  0.70503682     1.54400
O2602       O  0.18823866  0.17085924  0.71409174    -0.82300
O2603       O  0.09290396  0.19188415  0.68247390    -0.80600
O2604       O  0.20230155  0.20509378  0.68804444    -0.84800
O2605       O  0.17019950  0.21975527  0.74411117    -0.79700
O2606       O  0.15428413  0.15102731  0.65686876    -0.81400
O2607       O  0.10980019  0.24251436  0.67402146    -0.84200
C2608       C  0.15671294  0.20596930  0.76321490     0.96600
C2609       C  0.20579891  0.18602040  0.70742805     1.04000
O2610       O  0.14728942  0.20190720  0.68263200    -1.13200
O2611       O  0.14064055  0.22739608  0.61664303    -0.75600
O2612       O  0.17463283  0.24170343  0.64328237    -0.79100
O2613       O  0.14513256  0.18630011  0.75267574    -0.79800
C2614       C  0.15936523  0.24193283  0.61829778     0.95500
O2615       O  0.14398032  0.25528710  0.70146385    -0.77700
O2616       O  0.12710393  0.17446390  0.62599364    -0.82900
C2617       C  0.09307282  0.17033786  0.69620183     0.98100
C2618       C  0.14135635  0.15519108  0.62955741     1.04000
O2619       O  0.11315464  0.15902143  0.70313409    -0.78600
C2620       C  0.12152939  0.25871272  0.69192707     1.02300
Fe2621     Fe  0.53290099  0.93167157  0.94335457     1.65800
Fe2622     Fe  0.55205475  0.88160757  0.99134456     1.73200
Fe2623     Fe  0.59053923  0.90683483  0.93213820     1.54400
O2624       O  0.57130485  0.90018352  0.88610996    -0.82300
O2625       O  0.56962227  0.88350491  0.51451549    -0.80600
O2626       O  0.54271403  0.93052834  0.89261844    -0.84800
O2627       O  0.55763243  0.96092825  0.95016584    -0.79700
O2628       O  0.59700663  0.86823157  0.93771694    -0.81400
O2629       O  0.51726793  0.89733608  0.51931518    -0.84200
C2630       C  0.57437475  0.96393476  0.92737168     0.96600
C2631       C  0.55355240  0.91396219  0.87463856     1.04000
O2632       O  0.55842559  0.90662355  0.95590518    -1.13200
O2633       O  0.51603943  0.87505355  0.97468768    -0.75600
O2634       O  0.50648428  0.90407759  0.93483687    -0.79100
O2635       O  0.58909588  0.94574695  0.92011229    -0.79800
C2636       C  0.50124889  0.88458713  0.95263722     0.95500
O2637       O  0.51761777  0.93528780  0.99174969    -0.77700
O2638       O  0.56357311  0.85132317  0.96198594    -0.82900
C2639       C  0.58754582  0.89945010  0.51425163     0.98100
C2640       C  0.58451559  0.84907167  0.94725198     1.04000
O2641       O  0.61016625  0.91190091  0.97881695    -0.78600
C2642       C  0.50066808  0.91402290  0.51416510     1.02300
Fe2643     Fe  0.52244192  0.08128632  0.79471499     1.65800
Fe2644     Fe  0.55339324  0.12846392  0.75853692     1.73200
Fe2645     Fe  0.58039244  0.09614836  0.82368064     1.54400
O2646       O  0.55593178  0.08960975  0.86589193    -0.82300
O2647       O  0.58408821  0.11236895  0.73665757    -0.80600
O2648       O  0.51782792  0.09333200  0.84329042    -0.84800
O2649       O  0.54046386  0.04914877  0.81471630    -0.79700
O2650       O  0.58270323  0.13409898  0.83713661    -0.81400
O2651       O  0.53103268  0.10936916  0.72508824    -0.84200
C2652       C  0.56275029  0.04345132  0.82325398     0.96600
C2653       C  0.53205236  0.08954258  0.86863674     1.04000
O2654       O  0.55253026  0.10159094  0.79218029    -1.13200
O2655       O  0.52194038  0.14535757  0.77956585    -0.75600
O2656       O  0.49907299  0.11037235  0.77963312    -0.79100
O2657       O  0.58091443  0.05758781  0.81495787    -0.79800
C2658       C  0.50090075  0.13425210  0.78044440     0.95500
O2659       O  0.52466458  0.07037465  0.74378094    -0.77700
O2660       O  0.57558036  0.15220754  0.78657211    -0.82900
C2661       C  0.60463037  0.10626445  0.75068526     0.98100
C2662       C  0.58344407  0.15308625  0.81716706     1.04000
O2663       O  0.60675110  0.10171260  0.78310369    -0.78600
C2664       C  0.52127748  0.08778932  0.72150278     1.02300
Fe2665     Fe  0.82541657  0.27713335  0.69276039     1.65800
Fe2666     Fe  0.87302786  0.29662810  0.64207814     1.73200
Fe2667     Fe  0.84589417  0.33767920  0.69784257     1.54400
O2668       O  0.80746222  0.33530333  0.70662279    -0.82300
O2669       O  0.90191802  0.31255351  0.66905017    -0.80600
O2670       O  0.79470751  0.29946898  0.68270979    -0.84800
O2671       O  0.82471223  0.29011498  0.74186169    -0.79700
O2672       O  0.84128350  0.35489100  0.64946198    -0.81400
O2673       O  0.88217789  0.26203065  0.66358781    -0.84200
C2674       C  0.83846268  0.30432343  0.75966851     0.96600
C2675       C  0.79055066  0.31889480  0.70122326     1.04000
O2676       O  0.84814552  0.30385875  0.67724495    -1.13200
O2677       O  0.84758818  0.27952587  0.61071377    -0.75600
O2678       O  0.82348660  0.25811854  0.64655468    -0.79100
O2679       O  0.85143650  0.32216580  0.74678952    -0.79800
C2680       C  0.83505639  0.26007200  0.61834552     0.95500
O2681       O  0.85476524  0.25341748  0.70527385    -0.77700
O2682       O  0.86607483  0.33038228  0.61703551    -0.82900
C2683       C  0.90306385  0.33325718  0.68515782     0.98100
C2684       C  0.85323167  0.35034399  0.62159087     1.04000
O2685       O  0.88375501  0.34509434  0.69489189    -0.78600
C2686       C  0.87428662  0.24813532  0.68804016     1.02300
Fe2687     Fe  0.67414295  0.28006124  0.81846721     1.65800
Fe2688     Fe  0.62873880  0.30356754  0.86983423     1.73200
Fe2689     Fe  0.65455493  0.34066535  0.80855626     1.54400
O2690       O  0.69223559  0.33639283  0.79504112    -0.82300
O2691       O  0.59911240  0.31752511  0.84206286    -0.80600
O2692       O  0.70559991  0.30229277  0.82229711    -0.84800
O2693       O  0.67118645  0.28975942  0.76772686    -0.79700
O2694       O  0.66265263  0.35984576  0.85448626    -0.81400
O2695       O  0.61863713  0.26740385  0.85497962    -0.84200
C2696       C  0.65715616  0.30397032  0.75003042     0.96600
C2697       C  0.70919898  0.32006533  0.80083984     1.04000
O2698       O  0.65238181  0.30800106  0.83240589    -1.13200
O2699       O  0.65603966  0.28920211  0.90072769    -0.75600
O2700       O  0.67854806  0.26466974  0.86694060    -0.79100
O2701       O  0.64565984  0.32300504  0.76234302    -0.79800
C2702       C  0.66682867  0.26841028  0.89475816     0.95500
O2703       O  0.64456723  0.25551096  0.81291666    -0.77700
O2704       O  0.63650368  0.33891996  0.88938752    -0.82900
C2705       C  0.59777934  0.33856710  0.82659836     0.98100
C2706       C  0.65055017  0.35767013  0.88275053     1.04000
O2707       O  0.61716467  0.34978886  0.81567900    -0.78600
C2708       C  0.62608628  0.25155811  0.83271928     1.02300
Fe2709     Fe  0.46837244  0.57830620  0.94335382     1.65800
Fe2710     Fe  0.44832832  0.62699446  0.99294351     1.73200
Fe2711     Fe  0.40972623  0.60145643  0.93345455     1.54400
O2712       O  0.42749953  0.60808709  0.88609265    -0.82300
O2713       O  0.42019414  0.61888957  0.51919220    -0.80600
O2714       O  0.45898080  0.58076686  0.89281200    -0.84800
O2715       O  0.44483674  0.54773279  0.94776829    -0.79700
O2716       O  0.40267823  0.63984621  0.93921832    -0.81400
O2717       O  0.47228122  0.60423290  0.52430569    -0.84200
C2718       C  0.42730795  0.54522618  0.92592004     0.96600
C2719       C  0.44557371  0.59491635  0.87423315     1.04000
O2720       O  0.44217151  0.60218753  0.95687712    -1.13200
O2721       O  0.48406486  0.63502958  0.97625606    -0.75600
O2722       O  0.49368665  0.60670113  0.93583635    -0.79100
O2723       O  0.41154803  0.56290498  0.92115952    -0.79800
C2724       C  0.49887577  0.62585448  0.95404508     0.95500
O2725       O  0.48349205  0.57399335  0.99204244    -0.77700
O2726       O  0.43554140  0.65700769  0.96435733    -0.82900
C2727       C  0.39411832  0.60803133  0.00856610     0.98100
C2728       C  0.41462700  0.65910018  0.94956184     1.04000
O2729       O  0.39082206  0.59562196  0.98053060    -0.78600
C2730       C  0.49076666  0.59028029  0.51685693     1.02300
Fe2731     Fe  0.47057723  0.43322178  0.80961666     1.65800
Fe2732     Fe  0.45179623  0.38134523  0.76537594     1.73200
Fe2733     Fe  0.41116282  0.41130085  0.81663116     1.54400
O2734       O  0.42778566  0.40562656  0.86497200    -0.82300
O2735       O  0.41805085  0.38616518  0.74035847    -0.80600
O2736       O  0.45806087  0.43441153  0.85932884    -0.84800
O2737       O  0.44766255  0.46380773  0.79953813    -0.79700
O2738       O  0.40268029  0.37314735  0.81362203    -0.81400
O2739       O  0.46719575  0.40561872  0.73070330    -0.84200
C2740       C  0.42901938  0.46767101  0.81925945     0.96600
C2741       C  0.44590826  0.41861072  0.87710559     1.04000
O2742       O  0.44457259  0.40886786  0.79658886    -1.13200
O2743       O  0.48643308  0.37384021  0.78656035    -0.75600
O2744       O  0.49548746  0.40520692  0.82290944    -0.79100
O2745       O  0.41343714  0.45014551  0.82546338    -0.79800
C2746       C  0.50055677  0.38425502  0.80860716     0.95500
O2747       O  0.48820326  0.43351336  0.76179166    -0.77700
O2748       O  0.43734891  0.35420064  0.79731162    -0.82900
C2749       C  0.39921320  0.40082316  0.74164454     0.98100
C2750       C  0.41529392  0.35326200  0.80862823     1.04000
O2751       O  0.39481063  0.41534947  0.76745210    -0.78600
C2752       C  0.48633971  0.41903696  0.73580534     1.02300
C2753       C  0.45042838  0.49841046  0.85800108    -0.26900
C2754       C  0.42814123  0.49026044  0.84250441    -0.15000
C2755       C  0.40532903  0.49963829  0.85572257     0.35600
C2756       C  0.40535683  0.51654445  0.88395014    -0.26400
C2757       C  0.42765294  0.52403891  0.90018237    -0.15600
C2758       C  0.45040717  0.51491692  0.88647584     0.36700
N2759       N  0.47374851  0.52296582  0.90063026    -0.89900
H2760       H  0.46810774  0.49107939  0.84889775     0.17800
H2761       H  0.38780677  0.52404086  0.89324775     0.17800
N2762       N  0.38214658  0.49181639  0.84053234    -0.88900
H2763       H  0.48392686  0.53181875  0.88109241     0.35200
H2764       H  0.48363516  0.50691143  0.90838321     0.40300
H2765       H  0.38187677  0.49850391  0.81521428     0.39900
H2766       H  0.36707469  0.50024564  0.85315033     0.34800
C2767       C  0.55116669  0.33597646  0.82642895    -0.26900
C2768       C  0.57286641  0.35065226  0.82203510    -0.15000
C2769       C  0.57025832  0.37679997  0.81469362     0.35600
C2770       C  0.54632120  0.38734332  0.81172334    -0.26400
C2771       C  0.52490601  0.37252626  0.81566401    -0.15600
C2772       C  0.52731351  0.34667204  0.82304188     0.36700
N2773       N  0.50556217  0.33133360  0.82758735    -0.89900
H2774       H  0.55264409  0.31601170  0.83227339     0.17800
H2775       H  0.54433348  0.40721962  0.80552099     0.17800
N2776       N  0.59176432  0.39270516  0.81048847    -0.88900
H2777       H  0.50622410  0.32346692  0.85225831     0.35200
H2778       H  0.50630337  0.31657826  0.80977283     0.40300
H2779       H  0.60043096  0.39395830  0.83445745     0.39900
H2780       H  0.58649668  0.41110613  0.80387489     0.34800
C2781       C  0.76060930  0.29724521  0.74000057    -0.26900
C2782       C  0.76801169  0.31973390  0.72375943    -0.15000
C2783       C  0.75726116  0.34262141  0.73500156     0.35600
C2784       C  0.73902251  0.34249618  0.76123847    -0.26400
C2785       C  0.73164581  0.31993355  0.77770262    -0.15600
C2786       C  0.74295547  0.29702960  0.76663633     0.36700
N2787       N  0.73645639  0.27297911  0.78097038    -0.89900
H2788       H  0.76927280  0.27953775  0.73271889     0.17800
H2789       H  0.73042983  0.36021674  0.76857538     0.17800
N2790       N  0.76465938  0.36605483  0.71965909    -0.88900
H2791       H  0.71743874  0.26978036  0.77707239     0.35200
H2792       H  0.74030808  0.27312870  0.80730571     0.40300
H2793       H  0.77149631  0.37776537  0.73913398     0.39900
H2794       H  0.74877969  0.37462454  0.70924446     0.34800
C2795       C  0.62875238  0.20536433  0.83970700    -0.26900
C2796       C  0.61412774  0.22658705  0.83188110    -0.15000
C2797       C  0.58862655  0.22345670  0.82448911     0.35600
C2798       C  0.57870203  0.19908242  0.82255209    -0.26400
C2799       C  0.59358604  0.17759959  0.82850495    -0.15600
C2800       C  0.61889818  0.18086064  0.83818832     0.36700
N2801       N  0.63539013  0.16010528  0.84560421    -0.89900
H2802       H  0.64821467  0.20784405  0.84654814     0.17800
H2803       H  0.55937095  0.19681772  0.81493196     0.17800
N2804       N  0.57271596  0.24457188  0.81734775    -0.88900
H2805       H  0.65010528  0.16078340  0.82801338     0.35200
H2806       H  0.62674896  0.14266162  0.84237504     0.40300
H2807       H  0.58031515  0.25473689  0.79679059     0.39900
H2808       H  0.57238405  0.25626773  0.83897578     0.34800
C2809       C  0.59004824  0.98771787  0.87508476    -0.26900
C2810       C  0.57355387  0.98648091  0.90347636    -0.15000
C2811       C  0.55384697  0.00426914  0.90460227     0.35600
C2812       C  0.55039181  0.02151660  0.87736112    -0.26400
C2813       C  0.56661725  0.02254794  0.84892208    -0.15600
C2814       C  0.58705391  0.00564664  0.84842121     0.36700
N2815       N  0.60457916  0.00562099  0.82065109    -0.89900
H2816       H  0.60518223  0.97424088  0.87304342     0.17800
H2817       H  0.53502516  0.03469882  0.87898392     0.17800
N2818       N  0.53696756  0.00488817  0.93315150    -0.88900
H2819       H  0.61358062  0.02311112  0.82001383     0.35200
H2820       H  0.59476162  0.00325213  0.79763572     0.40300
H2821       H  0.51889264  0.00206713  0.92380078     0.39900
H2822       H  0.53772394  0.02292417  0.94404802     0.34800
C2823       C  0.47502160  0.16791430  0.80703457    -0.26900
C2824       C  0.47734177  0.14852650  0.78288480    -0.15000
C2825       C  0.45595225  0.13996452  0.76519654     0.35600
C2826       C  0.43244250  0.14952357  0.77387724    -0.26400
C2827       C  0.42969508  0.16771299  0.79973849    -0.15600
C2828       C  0.45153251  0.17754633  0.81580749     0.36700
N2829       N  0.45058348  0.19625509  0.84236160    -0.89900
H2830       H  0.49135950  0.17448829  0.82080451     0.17800
H2831       H  0.41611243  0.14235734  0.76067711     0.17800
N2832       N  0.45823953  0.12129437  0.73865136    -0.88900
H2833       H  0.43949733  0.18953577  0.86250898     0.35200
H2834       H  0.44289302  0.21283842  0.83230293     0.40300
H2835       H  0.46826585  0.12974063  0.71870896     0.39900
H2836       H  0.44076693  0.11660843  0.72855084     0.34800
C2837       C  0.25918335  0.15920346  0.76230371    -0.26900
C2838       C  0.26740210  0.18102528  0.77957422    -0.15000
C2839       C  0.25620763  0.20440187  0.77077294     0.35600
C2840       C  0.23753252  0.20552127  0.74537935    -0.26400
C2841       C  0.22903177  0.18374579  0.72848598    -0.15600
C2842       C  0.23985740  0.16020000  0.73771900     0.36700
N2843       N  0.23197445  0.13702338  0.72218284    -0.89900
H2844       H  0.26784155  0.14116905  0.76796367     0.17800
H2845       H  0.22900671  0.22362588  0.73968723     0.17800
N2846       N  0.26429496  0.22738186  0.78665365    -0.88900
H2847       H  0.23317939  0.13897609  0.69547048     0.35200
H2848       H  0.21343043  0.13355675  0.72888740     0.40300
H2849       H  0.24883079  0.23585744  0.79822869     0.39900
H2850       H  0.27076035  0.23950562  0.76736404     0.34800
C2851       C  0.40541307  0.28259151  0.81934811    -0.26900
C2852       C  0.37941723  0.28073846  0.81582494    -0.15000
C2853       C  0.36513934  0.30307606  0.81268919     0.35600
C2854       C  0.37718009  0.32649554  0.81165566    -0.26400
C2855       C  0.40331114  0.32832522  0.81398192    -0.15600
C2856       C  0.41751329  0.30609901  0.81875919     0.36700
N2857       N  0.44409468  0.30744313  0.82339525    -0.89900
H2858       H  0.41634447  0.26555129  0.82289131     0.17800
H2859       H  0.36595999  0.34336720  0.80838878     0.17800
N2860       N  0.33841879  0.30268757  0.81176630    -0.88900
H2861       H  0.45170908  0.28938515  0.82639551     0.35200
H2862       H  0.44743733  0.31707481  0.84640761     0.40300
H2863       H  0.33193091  0.29336970  0.83375222     0.39900
H2864       H  0.33266522  0.29274245  0.78997631     0.34800
C2865       C  0.35539300  0.12515202  0.96592265    -0.26900
C2866       C  0.37522406  0.10783217  0.96560208    -0.15000
C2867       C  0.38489186  0.10001615  0.93357785     0.35600
C2868       C  0.37598484  0.11093352  0.90280150    -0.26400
C2869       C  0.35793427  0.13015103  0.90346876    -0.15600
C2870       C  0.34702238  0.13662966  0.93526921     0.36700
N2871       N  0.32906882  0.15664155  0.93682637    -0.89900
H2872       H  0.34838362  0.13204394  0.99032311     0.17800
H2873       H  0.38512363  0.10632007  0.87875069     0.17800
N2874       N  0.40545173  0.08274149  0.93252701    -0.88900
H2875       H  0.33618872  0.17084522  0.95270876     0.35200
H2876       H  0.31290530  0.14953472  0.94833748     0.40300
H2877       H  0.42043817  0.09178354  0.92048902     0.39900
H2878       H  0.40026038  0.06734743  0.91731567     0.34800
C2879       C  0.48139987  0.07202185  0.93215852    -0.26900
C2880       C  0.49201988  0.07975724  0.96304330    -0.15000
C2881       C  0.51716391  0.08792328  0.96373470     0.35600
C2882       C  0.53069060  0.08966862  0.93300831    -0.26400
C2883       C  0.51932878  0.08392885  0.90155241    -0.15600
C2884       C  0.49477084  0.07363277  0.90141774     0.36700
N2885       N  0.48314372  0.06545034  0.86995002    -0.89900
H2886       H  0.46215032  0.06575089  0.93185622     0.17800
H2887       H  0.54952390  0.09708040  0.93353172     0.17800
N2888       N  0.53508662  0.06511176  0.49089974    -0.88900
H2889       H  0.46494302  0.05913540  0.87437970     0.35200
H2890       H  0.49318336  0.04990932  0.86084796     0.40300
H2891       H  0.53056535  0.04712680  0.50011513     0.39900
H2892       H  0.52807415  0.07858372  0.50794905     0.34800
C2893       C  0.47588459  0.10896643  0.65306486    -0.26900
C2894       C  0.45674868  0.09125320  0.65642245    -0.15000
C2895       C  0.45944393  0.07135311  0.68060640     0.35600
C2896       C  0.48149700  0.06926971  0.69990584    -0.26400
C2897       C  0.50123711  0.08634742  0.69525875    -0.15600
C2898       C  0.49831885  0.10617896  0.67093048     0.36700
N2899       N  0.51817028  0.12360856  0.66398880    -0.89900
H2900       H  0.47466800  0.12342834  0.63330204     0.17800
H2901       H  0.48297087  0.05441593  0.71900451     0.17800
N2902       N  0.44070090  0.05215553  0.68460495    -0.88900
H2903       H  0.51170639  0.14185970  0.66912613     0.35200
H2904       H  0.52250126  0.12258926  0.63783337     0.40300
H2905       H  0.42511811  0.05611748  0.66936546     0.39900
H2906       H  0.43452704  0.05278357  0.71009500     0.34800
C2907       C  0.44705873  0.99179781  0.64242546    -0.26900
C2908       C  0.42471760  0.98350404  0.65758289    -0.15000
C2909       C  0.40195288  0.99172388  0.64284469     0.35600
C2910       C  0.40198249  0.00787905  0.61390962    -0.26400
C2911       C  0.42434451  0.01560719  0.59821691    -0.15600
C2912       C  0.44711706  0.00739955  0.61303169     0.36700
N2913       N  0.47053508  0.01545453  0.59907509    -0.89900
H2914       H  0.46477081  0.98524794  0.65250468     0.17800
H2915       H  0.38433474  0.01452422  0.60373181     0.17800
N2916       N  0.37865302  0.98368991  0.65714947    -0.88900
H2917       H  0.48088542  0.99938289  0.59276328     0.35200
H2918       H  0.48026035  0.02505872  0.61836339     0.40300
H2919       H  0.36866079  0.97431874  0.63791083     0.39900
H2920       H  0.36855315  0.99977930  0.66415146     0.34800
C2921       C  0.50537198  0.89438143  0.81291652    -0.26900
C2922       C  0.50260065  0.91685934  0.79390524    -0.15000
C2923       C  0.52120217  0.93553465  0.79622872     0.35600
C2924       C  0.54095926  0.93234969  0.81958717    -0.26400
C2925       C  0.54255251  0.91070197  0.84052229    -0.15600
C2926       C  0.52505020  0.89114340  0.83602157     0.36700
N2927       N  0.52580827  0.86856362  0.85640583    -0.89900
H2928       H  0.49188506  0.87925948  0.81023730     0.17800
H2929       H  0.55383524  0.94785866  0.82365794     0.17800
N2930       N  0.51940791  0.95828918  0.77641715    -0.88900
H2931       H  0.52411870  0.87339047  0.88234924     0.35200
H2932       H  0.54317612  0.85998928  0.85276837     0.40300
H2933       H  0.53561173  0.95990963  0.76162136     0.39900
H2934       H  0.51888212  0.97355644  0.79344050     0.34800
C2935       C  0.44886915  0.93512805  0.57431308    -0.26900
C2936       C  0.44297874  0.91186523  0.59000712    -0.15000
C2937       C  0.45263306  0.88946054  0.57605677     0.35600
C2938       C  0.47088996  0.89093095  0.55064510    -0.26400
C2939       C  0.47955264  0.91441832  0.53844622    -0.15600
C2940       C  0.46711221  0.93666092  0.54841987     0.36700
N2941       N  0.47422292  0.96072096  0.53433817    -0.89900
H2942       H  0.44127981  0.95239113  0.58503332     0.17800
H2943       H  0.47909243  0.87351993  0.54129891     0.17800
N2944       N  0.44585582  0.86513775  0.58931329    -0.88900
H2945       H  0.46384503  0.97518575  0.54571094     0.35200
H2946       H  0.46505407  0.96193297  0.01319795     0.40300
H2947       H  0.42649998  0.86325034  0.58724065     0.39900
H2948       H  0.45070983  0.86418154  0.61532563     0.34800
C2949       C  0.56872817  0.63174215  0.94650857    -0.26900
C2950       C  0.57197135  0.65800659  0.94754248    -0.15000
C2951       C  0.55092391  0.67390936  0.95121301     0.35600
C2952       C  0.52705145  0.66307115  0.95305413    -0.26400
C2953       C  0.52391489  0.63683722  0.95093758    -0.15600
C2954       C  0.54498225  0.62096454  0.94827437     0.36700
N2955       N  0.54223422  0.59392343  0.94790647    -0.89900
H2956       H  0.58477829  0.61949041  0.94349782     0.17800
H2957       H  0.51081528  0.67510652  0.95581873     0.17800
N2958       N  0.55381950  0.70088180  0.95297486    -0.88900
H2959       H  0.53527435  0.58845560  0.97191495     0.35200
H2960       H  0.55955821  0.58506207  0.94520751     0.40300
H2961       H  0.56371671  0.70497481  0.97546578     0.39900
H2962       H  0.53646618  0.70974974  0.95526545     0.34800
C2963       C  0.59307205  0.77794287  0.93481465    -0.26900
C2964       C  0.61913920  0.77552513  0.93780765    -0.15000
C2965       C  0.63354622  0.79761299  0.94300064     0.35600
C2966       C  0.62179151  0.82115942  0.94530248    -0.26400
C2967       C  0.59575038  0.82357652  0.94284499    -0.15600
C2968       C  0.58128996  0.80165850  0.93758340     0.36700
N2969       N  0.55474720  0.80343960  0.93412541    -0.89900
H2970       H  0.58175330  0.76131706  0.93027157     0.17800
H2971       H  0.63322330  0.83775625  0.94950147     0.17800
N2972       N  0.66023139  0.79696213  0.94475815    -0.88900
H2973       H  0.54661686  0.79203871  0.95302405     0.35200
H2974       H  0.54980336  0.79614628  0.91009104     0.40300
H2975       H  0.66706800  0.78838187  0.92246071     0.39900
H2976       H  0.66556533  0.78632655  0.96619154     0.34800
C2977       C  0.74255964  0.69691848  0.98196582    -0.26900
C2978       C  0.73446403  0.67426731  0.96703694    -0.15000
C2979       C  0.74110341  0.65415670  0.48391135     0.35600
C2980       C  0.75905422  0.65305505  0.51043776    -0.26400
C2981       C  0.76546982  0.67465135  0.52966311    -0.15600
C2982       C  0.76067877  0.69721481  0.00797484     0.36700
N2983       N  0.76755632  0.72093253  0.02294096    -0.89900
H2984       H  0.73362972  0.71457657  0.97497045     0.17800
H2985       H  0.76799380  0.63517054  0.51613540     0.17800
N2986       N  0.73463013  0.63129310  0.46643059    -0.88900
H2987       H  0.75156146  0.72905531  0.03363904     0.35200
H2988       H  0.77387053  0.73280771  0.00326501     0.40300
H2989       H  0.73765366  0.63394517  0.44010464     0.39900
H2990       H  0.71569564  0.62766176  0.47035499     0.34800
C2991       C  0.89697591  0.18698568  0.72956434    -0.26900
C2992       C  0.90952222  0.17577606  0.70182961    -0.15000
C2993       C  0.91181324  0.18902265  0.67061999     0.35600
C2994       C  0.90114259  0.21299515  0.66740141    -0.26400
C2995       C  0.88762478  0.22402051  0.69462039    -0.15600
C2996       C  0.88574681  0.21084206  0.72613147     0.36700
N2997       N  0.87248913  0.22149462  0.75462744    -0.89900
H2998       H  0.89530069  0.17686822  0.75372558     0.17800
H2999       H  0.90271987  0.22263636  0.64288928     0.17800
N3000       N  0.92487645  0.17853283  0.64184433    -0.88900
H3001       H  0.88481462  0.22288035  0.77538688     0.35200
H3002       H  0.85824299  0.20899768  0.76155289     0.40300
H3003       H  0.91617425  0.16163999  0.63484224     0.39900
H3004       H  0.94312474  0.17442685  0.64955267     0.34800
C3005       C  0.06876002  0.13080758  0.69667044    -0.26900
C3006       C  0.06928411  0.15700536  0.70198726    -0.15000
C3007       C  0.04698762  0.16986354  0.71008486     0.35600
C3008       C  0.02451692  0.15620399  0.71180599    -0.26400
C3009       C  0.02392226  0.13010220  0.70516505    -0.15600
C3010       C  0.04646571  0.11731952  0.69788722     0.36700
N3011       N  0.04750026  0.09057559  0.69244060    -0.89900
H3012       H  0.08578093  0.12074046  0.69042754     0.17800
H3013       H  0.00735571  0.16598126  0.71812073     0.17800
N3014       N  0.04727375  0.19657777  0.71671972    -0.88900
H3015       H  0.03957465  0.08147049  0.71367474     0.35200
H3016       H  0.03731871  0.08614362  0.67034410     0.40300
H3017       H  0.05794736  0.19953907  0.73886996     0.39900
H3018       H  0.02930102  0.20310929  0.72219801     0.34800
C3019       C  0.87602021  0.81741179  0.54042608    -0.26900
C3020       C  0.89120621  0.82776398  0.56610910    -0.15000
C3021       C  0.89488022  0.81447937  0.59709465     0.35600
C3022       C  0.88310829  0.79097998  0.60174194    -0.26400
C3023       C  0.86807908  0.78032382  0.57576111    -0.15600
C3024       C  0.86431045  0.79403513  0.54496102     0.36700
N3025       N  0.84921297  0.78412106  0.51771817    -0.89900
H3026       H  0.87360026  0.82733145  0.51627096     0.17800
H3027       H  0.88609277  0.78076853  0.62556590     0.17800
N3028       N  0.91132720  0.82436680  0.62302442    -0.88900
H3029       H  0.86026374  0.78268425  0.49564944     0.35200
H3030       H  0.83492630  0.79706078  0.51265759     0.40300
H3031       H  0.92932013  0.82482840  0.61265288     0.39900
H3032       H  0.91206875  0.81221719  0.64423381     0.34800
C3033       C  0.95373663  0.00881881  0.63918491    -0.26900
C3034       C  0.93020606  0.01519123  0.65242202    -0.15000
C3035       C  0.90882991  0.00481859  0.63645596     0.35600
C3036       C  0.91159036  0.98701988  0.60943916    -0.26400
C3037       C  0.93530982  0.98005681  0.59692826    -0.15600
C3038       C  0.95649843  0.99233728  0.61108990     0.36700
N3039       N  0.98096409  0.98783158  0.59717179    -0.89900
H3040       H  0.97020316  0.01773501  0.64983965     0.17800
H3041       H  0.89517098  0.97785515  0.59908896     0.17800
N3042       N  0.88442812  0.01206955  0.64806675    -0.88900
H3043       H  0.99450988  0.99801300  0.61064881     0.35200
H3044       H  0.98105507  0.99473997  0.57195831     0.40300
H3045       H  0.88252987  0.00584983  0.67346880     0.39900
H3046       H  0.87066511  0.00287678  0.63371944     0.34800
C3047       C  0.07419409  0.31275158  0.69859113    -0.26900
C3048       C  0.08978773  0.33295161  0.70788552    -0.15000
C3049       C  0.11502241  0.32787818  0.71573417     0.35600
C3050       C  0.12447608  0.30343206  0.71182113    -0.26400
C3051       C  0.10938081  0.28337558  0.70036390    -0.15600
C3052       C  0.08362385  0.28800609  0.69491402     0.36700
N3053       N  0.06711200  0.26772497  0.68567489    -0.89900
H3054       H  0.05459772  0.31636745  0.69378388     0.17800
H3055       H  0.14408708  0.30034748  0.71711455     0.17800
N3056       N  0.13136345  0.34697570  0.72882437    -0.88900
H3057       H  0.04891491  0.27440049  0.68228200     0.35200
H3058       H  0.06653320  0.25516047  0.70644666     0.40300
H3059       H  0.12328409  0.35470117  0.75091276     0.39900
H3060       H  0.13338545  0.36113135  0.71030069     0.34800
C3061       C  0.94597545  0.34359712  0.66542682    -0.26900
C3062       C  0.92777462  0.34464445  0.69143273    -0.15000
C3063       C  0.93300138  0.35772890  0.72209473     0.35600
C3064       C  0.95582802  0.37026896  0.72576965    -0.26400
C3065       C  0.97348350  0.37022442  0.69915963    -0.15600
C3066       C  0.96888216  0.35627250  0.66906245     0.36700
N3067       N  0.98753231  0.35483506  0.64261147    -0.89900
H3068       H  0.94204472  0.33343267  0.64186477     0.17800
H3069       H  0.95949986  0.38063593  0.74922805     0.17800
N3070       N  0.91528257  0.35813006  0.74966482    -0.88900
H3071       H  0.98148457  0.34296006  0.62284112     0.35200
H3072       H  0.00328621  0.34616319  0.65323743     0.40300
H3073       H  0.91097192  0.37698033  0.75504322     0.39900
H3074       H  0.92380041  0.35037726  0.77146495     0.34800
C3075       C  0.07936599  0.52366169  0.61418919    -0.26900
C3076       C  0.05722690  0.52625687  0.59470523    -0.15000
C3077       C  0.03674996  0.51046427  0.60383417     0.35600
C3078       C  0.03849846  0.49403911  0.63217143    -0.26400
C3079       C  0.06040521  0.49178925  0.65183784    -0.15600
C3080       C  0.08115135  0.50651970  0.64217385     0.36700
N3081       N  0.10385314  0.50475014  0.66138911    -0.89900
H3082       H  0.09522685  0.53562387  0.60849538     0.17800
H3083       H  0.02263088  0.48212080  0.63808259     0.17800
N3084       N  0.01413518  0.50972514  0.58418752    -0.88900
H3085       H  0.10792032  0.52266764  0.67118145     0.35200
H3086       H  0.11812877  0.49974280  0.64440199     0.40300
H3087       H  0.01860175  0.50688952  0.55830094     0.39900
H3088       H  0.00452522  0.52671122  0.58697536     0.34800
C3089       C  0.97139649  0.67548885  0.56770317    -0.26900
C3090       C  0.97471501  0.66005791  0.53883737    -0.15000
C3091       C  0.95401076  0.65420742  0.51790708     0.35600
C3092       C  0.93007011  0.66163584  0.52807197    -0.26400
C3093       C  0.92625209  0.67495970  0.55873730    -0.15600
C3094       C  0.94727386  0.68306122  0.57798602     0.36700
N3095       N  0.94407722  0.69762434  0.60885047    -0.89900
H3096       H  0.98732056  0.67979977  0.58383441     0.17800
H3097       H  0.91418860  0.65624391  0.51246580     0.17800
N3098       N  0.95737701  0.63960521  0.48713641    -0.88900
H3099       H  0.96138615  0.70235949  0.61943702     0.35200
H3100       H  0.93511744  0.68611833  0.62689893     0.40300
H3101       H  0.96795334  0.65059922  0.47022485     0.39900
H3102       H  0.97848434  0.70517988  0.99786046     0.34800
C3103       C  0.35147047  0.37297136  0.68202931    -0.26900
C3104       C  0.36358002  0.37630459  0.65024699    -0.15000
C3105       C  0.38406758  0.39301885  0.64850219     0.35600
C3106       C  0.39299891  0.40458785  0.67880013    -0.26400
C3107       C  0.38245690  0.39926653  0.71114580    -0.15600
C3108       C  0.36072475  0.38425122  0.71248271     0.36700
N3109       N  0.34979351  0.37829044  0.74523561    -0.89900
H3110       H  0.33617653  0.35964709  0.68365155     0.17800
H3111       H  0.41004882  0.41556110  0.67772116     0.17800
N3112       N  0.39713381  0.39643463  0.61650916    -0.88900
H3113       H  0.33442285  0.36636324  0.74209042     0.35200
H3114       H  0.34299582  0.39513135  0.75566120     0.40300
H3115       H  0.40556157  0.37925223  0.61014350     0.39900
H3116       H  0.41161760  0.40948070  0.61941326     0.34800
C3117       C  0.36096340  0.27932014  0.95321063    -0.26900
C3118       C  0.33995388  0.29354079  0.96197244    -0.15000
C3119       C  0.31715346  0.28911629  0.94471860     0.35600
C3120       C  0.31529770  0.26960977  0.92080241    -0.26400
C3121       C  0.33558792  0.25377239  0.91468933    -0.15600
C3122       C  0.35894266  0.25931987  0.92985652     0.36700
N3123       N  0.38063918  0.24470308  0.92165178    -0.89900
H3124       H  0.37843122  0.28225947  0.96668967     0.17800
H3125       H  0.29761794  0.26618351  0.90808710     0.17800
N3126       N  0.29536843  0.30345986  0.95295411    -0.88900
H3127       H  0.38760642  0.23692421  0.94445241     0.35200
H3128       H  0.39415142  0.25691707  0.91165985     0.40300
H3129       H  0.28158647  0.29103798  0.96168425     0.39900
H3130       H  0.28892295  0.31194724  0.93032490     0.34800
C3131       C  0.31665023  0.23219100  0.66288249    -0.26900
C3132       C  0.33610399  0.24975247  0.65970424    -0.15000
C3133       C  0.35819084  0.24623156  0.67909918     0.35600
C3134       C  0.35961221  0.22662704  0.70307824    -0.26400
C3135       C  0.33922456  0.21079135  0.70870019    -0.15600
C3136       C  0.31789911  0.21300061  0.68774112     0.36700
N3137       N  0.29702646  0.19656816  0.69301624    -0.89900
H3138       H  0.30003575  0.23402390  0.64718449     0.17800
H3139       H  0.37584387  0.22535464  0.71966537     0.17800
N3140       N  0.37922424  0.26264344  0.67481690    -0.88900
H3141       H  0.29347373  0.18715498  0.66990679     0.35200
H3142       H  0.28147363  0.20771808  0.69870774     0.40300
H3143       H  0.39459514  0.25164066  0.66778120     0.39900
H3144       H  0.38312514  0.27103628  0.69855209     0.34800
C3145       C  0.37898897  0.17911864  0.55720696    -0.26900
C3146       C  0.40510016  0.17660311  0.55484603    -0.15000
C3147       C  0.41977939  0.19881100  0.55442490     0.35600
C3148       C  0.40827736  0.22266075  0.55658464    -0.26400
C3149       C  0.38224920  0.22503784  0.55847075    -0.15600
C3150       C  0.36743607  0.20299967  0.55880425     0.36700
N3151       N  0.34079546  0.20487058  0.56236381    -0.89900
H3152       H  0.36740065  0.16236249  0.55742057     0.17800
H3153       H  0.41980638  0.23947486  0.55688036     0.17800
N3154       N  0.44641105  0.19735307  0.55232241    -0.88900
H3155       H  0.32421181  0.19819577  0.08769551     0.35200
H3156       H  0.33379096  0.21272155  0.53964434     0.40300
H3157       H  0.45390508  0.20632922  0.57391897     0.39900
H3158       H  0.45211260  0.20734218  0.53047606     0.34800
C3159       C  0.25451128  0.34914691  0.96561321    -0.26900
C3160       C  0.23081538  0.34236631  0.97739728    -0.15000
C3161       C  0.24264516  0.30441130  0.48862404     0.35600
C3162       C  0.26053721  0.30540120  0.51502237    -0.26400
C3163       C  0.27083456  0.32838684  0.52610132    -0.15600
C3164       C  0.27500992  0.35102002  0.98849510     0.36700
N3165       N  0.29842270  0.36051277  0.97579194    -0.89900
H3166       H  0.25705141  0.35304202  0.93847269     0.17800
H3167       H  0.26725922  0.28776744  0.52578539     0.17800
N3168       N  0.23311423  0.28034002  0.47818705    -0.88900
H3169       H  0.29670560  0.36642685  0.95022617     0.35200
H3170       H  0.31132744  0.34579040  0.97563780     0.40300
H3171       H  0.22535098  0.27149217  0.49973249     0.39900
H3172       H  0.24811389  0.26934715  0.46974041     0.34800
C3173       C  0.15078528  0.39046939  0.81939725    -0.26900
C3174       C  0.13984036  0.39015895  0.85237209    -0.15000
C3175       C  0.11829958  0.40486149  0.85770155     0.35600
C3176       C  0.10621676  0.41641441  0.82950300    -0.26400
C3177       C  0.11529035  0.41374547  0.79565150    -0.15600
C3178       C  0.13897441  0.40255603  0.79115798     0.36700
N3179       N  0.14958998  0.40103376  0.75731938    -0.89900
H3180       H  0.16727003  0.37909339  0.81490734     0.17800
H3181       H  0.08814008  0.42508451  0.83359777     0.17800
N3182       N  0.10695996  0.40554804  0.89104837    -0.88900
H3183       H  0.16668605  0.39153608  0.75809015     0.35200
H3184       H  0.15342413  0.41947998  0.74927628     0.40300
H3185       H  0.08900129  0.39797896  0.88906897     0.39900
H3186       H  0.10529818  0.42446561  0.89838102     0.34800
C3187       C  0.13855524  0.27095938  0.57759790    -0.26900
C3188       C  0.16113046  0.26184424  0.59161717    -0.15000
C3189       C  0.18378023  0.27318934  0.58158930     0.35600
C3190       C  0.18340512  0.29172977  0.55568685    -0.26400
C3191       C  0.16099709  0.29898085  0.53954252    -0.15600
C3192       C  0.13826172  0.28920603  0.55146646     0.36700
N3193       N  0.11515032  0.29643130  0.53535996    -0.89900
H3194       H  0.12094212  0.26324422  0.58635264     0.17800
H3195       H  0.20090794  0.29903518  0.54587143     0.17800
N3196       N  0.20711007  0.26478771  0.59582652    -0.88900
H3197       H  0.10005557  0.28777584  0.54765732     0.35200
H3198       H  0.11528347  0.28952514  0.51017127     0.40300
H3199       H  0.20786628  0.27101380  0.62130007     0.39900
H3200       H  0.22205242  0.27349993  0.58323815     0.34800
C3201       C  0.14633220  0.25865241  0.81815957    -0.26900
C3202       C  0.16965482  0.25931713  0.83474547    -0.15000
C3203       C  0.18385670  0.23678756  0.83654008     0.35600
C3204       C  0.17577040  0.21533333  0.81821831    -0.26400
C3205       C  0.15408299  0.21608778  0.79795804    -0.15600
C3206       C  0.13806777  0.23713164  0.80084476     0.36700
N3207       N  0.11481756  0.23850128  0.78245060    -0.89900
H3208       H  0.13449229  0.27524893  0.81781544     0.17800
H3209       H  0.18817395  0.19924570  0.81586926     0.17800
N3210       N  0.20696886  0.23602962  0.85526368    -0.88900
H3211       H  0.10072510  0.24155185  0.80055903     0.35200
H3212       H  0.11070307  0.22119502  0.77087578     0.40300
H3213       H  0.21946102  0.24814824  0.84286841     0.39900
H3214       H  0.21484046  0.21796817  0.85421667     0.34800
C3215       C  0.96500199  0.89977564  0.72514052    -0.26900
C3216       C  0.98197841  0.91996146  0.72826825    -0.15000
C3217       C  0.98161552  0.93947721  0.70354156     0.35600
C3218       C  0.96689382  0.93640937  0.67402984    -0.26400
C3219       C  0.95288342  0.91431042  0.66863876    -0.15600
C3220       C  0.95085005  0.89641045  0.69508419     0.36700
N3221       N  0.93600427  0.87408370  0.69025960    -0.89900
H3222       H  0.96483205  0.88518184  0.74466377     0.17800
H3223       H  0.96851968  0.95015969  0.65350785     0.17800
N3224       N  0.99749702  0.96128204  0.70577315    -0.88900
H3225       H  0.93600078  0.86307611  0.71260073     0.35200
H3226       H  0.94441489  0.86322060  0.67104113     0.40300
H3227       H  0.00746732  0.96147247  0.72881542     0.39900
H3228       H  0.98596482  0.97721571  0.70627290     0.34800
C3229       C  0.04004014  0.93584892  0.92923865    -0.26900
C3230       C  0.05065930  0.91234820  0.92067454    -0.15000
C3231       C  0.04759617  0.89178845  0.94289288     0.35600
C3232       C  0.03146876  0.89405284  0.97090203    -0.26400
C3233       C  0.01755910  0.91626377  0.97610375    -0.15600
C3234       C  0.02302560  0.93794474  0.95665988     0.36700
N3235       N  0.00600735  0.95459132  0.46233917    -0.89900
H3236       H  0.04229428  0.95162073  0.91173357     0.17800
H3237       H  0.02785550  0.87752541  0.98657521     0.17800
N3238       N  0.05868368  0.86788102  0.93490307    -0.88900
H3239       H  0.01129535  0.96895760  0.44534837     0.35200
H3240       H  0.01134021  0.96054627  0.48688533     0.40300
H3241       H  0.04438449  0.85462191  0.93199469     0.39900
H3242       H  0.06957985  0.86236057  0.95591987     0.34800
C3243       C  0.12880480  0.11382175  0.60376267    -0.26900
C3244       C  0.14145791  0.13693432  0.60034994    -0.15000
C3245       C  0.14820949  0.14506414  0.56709401     0.35600
C3246       C  0.14029997  0.13142947  0.53794515    -0.26400
C3247       C  0.12487912  0.11009130  0.54112201    -0.15600
C3248       C  0.12037388  0.10036933  0.57461748     0.36700
N3249       N  0.10546006  0.07815768  0.57999918    -0.89900
H3250       H  0.12330896  0.10739684  0.62913822     0.17800
H3251       H  0.14362976  0.13941785  0.51266778     0.17800
N3252       N  0.16155795  0.16827733  0.56274993    -0.88900
H3253       H  0.11653953  0.06500416  0.59304927     0.35200
H3254       H  0.10078782  0.06976618  0.55656137     0.40300
H3255       H  0.15065382  0.18040054  0.54770981     0.39900
H3256       H  0.17792674  0.16436216  0.54915114     0.34800
C3257       C  0.09053850  0.20577122  0.92199947    -0.26900
C3258       C  0.10472288  0.18357122  0.92546122    -0.15000
C3259       C  0.13110649  0.18535004  0.92344065     0.35600
C3260       C  0.14242209  0.20905312  0.91772617    -0.26400
C3261       C  0.12811364  0.23112397  0.91434872    -0.15600
C3262       C  0.10185203  0.22942300  0.91676408     0.36700
N3263       N  0.08671545  0.25183129  0.91481912    -0.89900
H3264       H  0.07040143  0.20477129  0.92386025     0.17800
H3265       H  0.16256001  0.21032896  0.91603494     0.17800
N3266       N  0.14642660  0.16330512  0.92798456    -0.88900
H3267       H  0.09101271  0.26302992  0.93615309     0.35200
H3268       H  0.06778194  0.24733744  0.91681830     0.40300
H3269       H  0.14428307  0.15732936  0.95343349     0.39900
H3270       H  0.16529392  0.16779957  0.92499657     0.34800
C3271       C  0.04767875  0.01507055  0.89315905    -0.26900
C3272       C  0.07163545  0.02205608  0.90423304    -0.15000
C3273       C  0.09236990  0.00993419  0.88855718     0.35600
C3274       C  0.08861641  0.99081476  0.86366918    -0.26400
C3275       C  0.06451555  0.98376734  0.85272983    -0.15600
C3276       C  0.04395555  0.99674807  0.86744713     0.36700
N3277       N  0.01902622  0.99169718  0.85608360    -0.89900
H3278       H  0.03151480  0.02475802  0.90346995     0.17800
H3279       H  0.10471906  0.98096626  0.85351217     0.17800
N3280       N  0.11745039  0.01602429  0.89810660    -0.88900
H3281       H  0.01137820  0.00856455  0.84681545     0.35200
H3282       H  0.00854047  0.98590986  0.87735484     0.40300
H3283       H  0.11916421  0.01399129  0.92475943     0.39900
H3284       H  0.12101279  0.03481211  0.89153485     0.34800
C3285       C  0.98085057  0.06583218  0.54777864    -0.26900
C3286       C  0.99934293  0.08454964  0.54622850    -0.15000
C3287       C  0.99604711  0.10705550  0.56529863     0.35600
C3288       C  0.97560124  0.10957639  0.58732576    -0.26400
C3289       C  0.95866233  0.08980137  0.59160639    -0.15600
C3290       C  0.96056491  0.06818223  0.57030473     0.36700
N3291       N  0.94312476  0.04763012  0.57270671    -0.89900
H3292       H  0.98252189  0.04895011  0.53220692     0.17800
H3293       H  0.97456758  0.12597305  0.60397128     0.17800
N3294       N  0.01357293  0.12740704  0.56277040    -0.88900
H3295       H  0.93487503  0.04544144  0.54852333     0.35200
H3296       H  0.92860731  0.05205791  0.58957989     0.40300
H3297       H  0.02080662  0.13087187  0.58730049     0.39900
H3298       H  0.00398509  0.14355946  0.55466678     0.34800
C3299       C  0.02455511  0.06635268  0.79523611    -0.26900
C3300       C  0.00274217  0.08109118  0.79455088    -0.15000
C3301       C  0.00207172  0.10383632  0.81361109     0.35600
C3302       C  0.02211051  0.11023949  0.83482229    -0.26400
C3303       C  0.04251065  0.09401849  0.83849964    -0.15600
C3304       C  0.04428035  0.07251559  0.81748234     0.36700
N3305       N  0.06543019  0.05612869  0.82035457    -0.89900
H3306       H  0.02587056  0.04945801  0.77963669     0.17800
H3307       H  0.02038254  0.12656138  0.85150484     0.17800
N3308       N  0.98096041  0.12042353  0.81201105    -0.88900
H3309       H  0.07383755  0.05498497  0.79615004     0.35200
H3310       H  0.05900492  0.03811187  0.82674227     0.40300
H3311       H  0.98714834  0.13816777  0.80381146     0.39900
H3312       H  0.97374343  0.12237392  0.83685509     0.34800
C3313       C  0.52791874  0.15195235  0.55973176    -0.26900
C3314       C  0.52536975  0.12565155  0.56361752    -0.15000
C3315       C  0.54683217  0.11118925  0.57170553     0.35600
C3316       C  0.57021787  0.12322498  0.57432285    -0.26400
C3317       C  0.57271988  0.14949073  0.57020173    -0.15600
C3318       C  0.55119352  0.16400417  0.56301568     0.36700
N3319       N  0.55305604  0.19089240  0.55834656    -0.89900
H3320       H  0.51163402  0.16322785  0.55359871     0.17800
H3321       H  0.58655769  0.11202381  0.58027259     0.17800
N3322       N  0.54506795  0.08430407  0.57641939    -0.88900
H3323       H  0.53551255  0.19879103  0.55355432     0.35200
H3324       H  0.56380994  0.19411767  0.53633824     0.40300
H3325       H  0.56275235  0.07639001  0.58002128     0.39900
H3326       H  0.53529552  0.08113477  0.59929044     0.34800
C3327       C  0.67168739  0.20496786  0.94059617    -0.26900
C3328       C  0.65069856  0.20602850  0.96214775    -0.15000
C3329       C  0.63373820  0.22625347  0.95849069     0.35600
C3330       C  0.63991808  0.24647710  0.93697702    -0.26400
C3331       C  0.66236105  0.24682868  0.91822914    -0.15600
C3332       C  0.67780914  0.22520085  0.91873670     0.36700
N3333       N  0.70020121  0.22428230  0.89844405    -0.89900
H3334       H  0.68488941  0.18961825  0.94383977     0.17800
H3335       H  0.62701628  0.26219844  0.93520595     0.17800
N3336       N  0.61122401  0.22795009  0.97848951    -0.88900
H3337       H  0.70929594  0.20696111  0.90168880     0.35200
H3338       H  0.71227922  0.23816595  0.90781529     0.40300
H3339       H  0.60840448  0.21157197  0.99295212     0.39900
H3340       H  0.59627357  0.22888604  0.96124954     0.34800
C3341       C  0.67792465  0.27501630  0.66945819    -0.26900
C3342       C  0.65989012  0.25590658  0.66720850    -0.15000
C3343       C  0.63737498  0.25855132  0.68594008     0.35600
C3344       C  0.63453534  0.27855789  0.70908587    -0.26400
C3345       C  0.65397769  0.29562423  0.71460764    -0.15600
C3346       C  0.67525623  0.29463474  0.69342635     0.36700
N3347       N  0.69510146  0.31235382  0.69840447    -0.89900
H3348       H  0.69475579  0.27394623  0.65410473     0.17800
H3349       H  0.61825919  0.27896126  0.72564619     0.17800
N3350       N  0.61746901  0.24070767  0.68210705    -0.88900
H3351       H  0.69821427  0.32164704  0.67505331     0.35200
H3352       H  0.71124062  0.30222363  0.70453918     0.40300
H3353       H  0.60151707  0.25051896  0.67424373     0.39900
H3354       H  0.61384061  0.23267143  0.70618189     0.34800
C3355       C  0.65381792  0.13868708  0.70070675    -0.26900
C3356       C  0.64921304  0.12825436  0.66807103    -0.15000
C3357       C  0.63658392  0.10494870  0.66602482     0.35600
C3358       C  0.62536387  0.09482565  0.69587524    -0.26400
C3359       C  0.62661365  0.10759885  0.72756344    -0.15600
C3360       C  0.64275266  0.12847367  0.73053139     0.36700
N3361       N  0.64505947  0.14123650  0.76294207    -0.89900
H3362       H  0.66357281  0.15657548  0.70237670     0.17800
H3363       H  0.61305197  0.07868965  0.69351435     0.17800
N3364       N  0.63301149  0.09301780  0.63320227    -0.88900
H3365       H  0.65677706  0.15693212  0.76063894     0.35200
H3366       H  0.65382641  0.12875945  0.77995844     0.40300
H3367       H  0.62163796  0.10475716  0.61831499     0.39900
H3368       H  0.62337544  0.07598220  0.63612735     0.34800
C3369       C  0.93159800  0.13251740  0.92410062    -0.26900
C3370       C  0.92623224  0.15782090  0.93143881    -0.15000
C3371       C  0.94594983  0.17407869  0.94074441     0.35600
C3372       C  0.97043057  0.16460491  0.94364248    -0.26400
C3373       C  0.97588676  0.13907917  0.93679574    -0.15600
C3374       C  0.95605435  0.12311816  0.92606547     0.36700
N3375       N  0.96046793  0.09728345  0.91693325    -0.89900
H3376       H  0.91674560  0.11998436  0.91596097     0.17800
H3377       H  0.98511795  0.17728328  0.95186180     0.17800
N3378       N  0.94109320  0.20011359  0.94815651    -0.88900
H3379       H  0.95459170  0.09464890  0.89153590     0.35200
H3380       H  0.94952272  0.08583102  0.93283246     0.40300
H3381       H  0.95193472  0.21111912  0.93155634     0.39900
H3382       H  0.95164475  0.19617056  0.48458723     0.34800
C3383       C  0.87689071  0.09191065  0.81735557    -0.26900
C3384       C  0.87341216  0.10107047  0.78368817    -0.15000
C3385       C  0.85629042  0.12100507  0.77837337     0.35600
C3386       C  0.84530651  0.13308184  0.80694837    -0.26400
C3387       C  0.85113501  0.12579682  0.84079068    -0.15600
C3388       C  0.86591262  0.10405400  0.84595310     0.36700
N3389       N  0.87216555  0.09628188  0.88032753    -0.89900
H3390       H  0.89044486  0.07703931  0.82165734     0.17800
H3391       H  0.83423352  0.14996668  0.80291664     0.17800
N3392       N  0.85213480  0.13068774  0.74425424    -0.88900
H3393       H  0.88407909  0.08064151  0.87985087     0.35200
H3394       H  0.85569175  0.09032558  0.89220298     0.40300
H3395       H  0.86877533  0.13875616  0.73566788     0.39900
H3396       H  0.83900846  0.14529941  0.74470866     0.34800
C3397       C  0.82041006  0.20115990  0.56630570    -0.26900
C3398       C  0.84334262  0.19762785  0.54935093    -0.15000
C3399       C  0.86419991  0.21160995  0.55988919     0.35600
C3400       C  0.86080491  0.23185354  0.58262071    -0.26400
C3401       C  0.83708131  0.23770935  0.59590580    -0.15600
C3402       C  0.81705550  0.22106117  0.58976475     0.36700
N3403       N  0.79303781  0.22549989  0.60504182    -0.89900
H3404       H  0.80433229  0.19033319  0.55800775     0.17800
H3405       H  0.87665479  0.24358760  0.58924717     0.17800
N3406       N  0.88812086  0.20695488  0.54446750    -0.88900
H3407       H  0.79467705  0.22191485  0.63138796     0.35200
H3408       H  0.77999893  0.21247564  0.59582089     0.40300
H3409       H  0.89360077  0.18872540  0.55158739     0.39900
H3410       H  0.90151326  0.21925170  0.55453373     0.34800
C3411       C  0.81655332  0.29497062  0.81290499    -0.26900
C3412       C  0.83963560  0.29683750  0.79581035    -0.15000
C3413       C  0.85903419  0.28032426  0.80525002     0.35600
C3414       C  0.85402517  0.26019030  0.82738808    -0.26400
C3415       C  0.83011359  0.25648088  0.84141091    -0.15600
C3416       C  0.81159495  0.27498789  0.83587793     0.36700
N3417       N  0.78735983  0.27244373  0.85128235    -0.89900
H3418       H  0.80145337  0.30739642  0.80520262     0.17800
H3419       H  0.86891223  0.24696637  0.83308882     0.17800
N3420       N  0.88338024  0.28223282  0.79023110    -0.88900
H3421       H  0.77558492  0.28694431  0.84287784     0.35200
H3422       H  0.78943795  0.27510551  0.87775331     0.40300
H3423       H  0.89026684  0.30033481  0.79523530     0.39900
H3424       H  0.88192662  0.28000122  0.76359601     0.34800
C3425       C  0.76208136  0.20136092  0.49712399    -0.26900
C3426       C  0.76509146  0.17428526  0.97488975    -0.15000
C3427       C  0.75380493  0.15131647  0.98514137     0.35600
C3428       C  0.73479085  0.15143224  0.01061601    -0.26400
C3429       C  0.73303410  0.17903540  0.53529522    -0.15600
C3430       C  0.74429103  0.20174408  0.52388171     0.36700
N3431       N  0.73719248  0.22549644  0.53852276    -0.89900
H3432       H  0.77074236  0.21899917  0.48951672     0.17800
H3433       H  0.72550897  0.13391882  0.01724790     0.17800
N3434       N  0.76150872  0.12801707  0.96950786    -0.88900
H3435       H  0.73022962  0.23695110  0.51879151     0.35200
H3436       H  0.75320735  0.23411930  0.54838275     0.40300
H3437       H  0.75686595  0.12897321  0.94341435     0.39900
H3438       H  0.75152825  0.11284162  0.97986080     0.34800
C3439       C  0.63371244  0.39813319  0.90331302    -0.26900
C3440       C  0.65017189  0.37794963  0.90896914    -0.15000
C3441       C  0.65709886  0.37218877  0.94306288     0.35600
C3442       C  0.64526700  0.38445323  0.97075262    -0.26400
C3443       C  0.62567718  0.40158567  0.96494203    -0.15600
C3444       C  0.62086235  0.40955548  0.93075269     0.36700
N3445       N  0.60131321  0.42722341  0.92275863    -0.89900
H3446       H  0.62829595  0.40280226  0.87727800     0.17800
H3447       H  0.64899705  0.37790927  0.99669481     0.17800
N3448       N  0.67427570  0.35201375  0.94961959    -0.88900
H3449       H  0.60948271  0.44251229  0.90998282     0.35200
H3450       H  0.59341829  0.43460995  0.94514921     0.40300
H3451       H  0.66514776  0.33831495  0.96437719     0.39900
H3452       H  0.68898265  0.35923095  0.96427967     0.34800
C3453       C  0.49213819  0.39676576  0.94034934    -0.26900
C3454       C  0.49578083  0.41915729  0.95911850    -0.15000
C3455       C  0.47812728  0.43869525  0.95629249     0.35600
C3456       C  0.45855860  0.43652573  0.93243774    -0.26400
C3457       C  0.45604519  0.41488849  0.91174191    -0.15600
C3458       C  0.47231092  0.39431945  0.91695768     0.36700
N3459       N  0.46945396  0.37155036  0.89714395    -0.89900
H3460       H  0.50493180  0.38110720  0.94383635     0.17800
H3461       H  0.44658355  0.45270692  0.92788042     0.17800
N3462       N  0.48076631  0.46126735  0.97620402    -0.88900
H3463       H  0.48285886  0.35818083  0.90429748     0.35200
H3464       H  0.47287433  0.37582804  0.87134501     0.40300
H3465       H  0.46447850  0.46365753  0.99061872     0.39900
H3466       H  0.48224746  0.47653953  0.95925152     0.34800
C3467       C  0.53248106  0.38932865  0.67368170    -0.26900
C3468       C  0.54782648  0.40982147  0.66566666    -0.15000
C3469       C  0.54526156  0.43249971  0.68472441     0.35600
C3470       C  0.52523612  0.43530269  0.70766801    -0.26400
C3471       C  0.50789158  0.41579354  0.71230812    -0.15600
C3472       C  0.51260917  0.39206682  0.69676136     0.36700
N3473       N  0.49706330  0.37068962  0.70396009    -0.89900
H3474       H  0.53417989  0.37190182  0.65923143     0.17800
H3475       H  0.52274064  0.45313618  0.72087970     0.17800
N3476       N  0.56162115  0.45362189  0.67933355    -0.88900
H3477       H  0.50832950  0.35622200  0.71370818     0.35200
H3478       H  0.48925677  0.36449533  0.68083358     0.40300
H3479       H  0.57612625  0.44869986  0.66269834     0.39900
H3480       H  0.57007494  0.45776416  0.70289690     0.34800
C3481       C  0.58964293  0.27706342  0.57336442    -0.26900
C3482       C  0.61527664  0.27321645  0.56834371    -0.15000
C3483       C  0.63079731  0.29408472  0.56067567     0.35600
C3484       C  0.62020785  0.31811559  0.55707192    -0.26400
C3485       C  0.59451535  0.32190129  0.56109596    -0.15600
C3486       C  0.57906737  0.30109405  0.56948450     0.36700
N3487       N  0.55280881  0.30386702  0.57518616    -0.89900
H3488       H  0.57773291  0.26126575  0.58006441     0.17800
H3489       H  0.63210158  0.33400348  0.55069155     0.17800
N3490       N  0.65735962  0.29095603  0.55741374    -0.88900
H3491       H  0.54433397  0.30975983  0.55234746     0.35200
H3492       H  0.55007910  0.31766693  0.59402580     0.40300
H3493       H  0.66427039  0.28572204  0.58155496     0.39900
H3494       H  0.66593527  0.30808512  0.55111013     0.34800
C3495       C  0.46253467  0.36727853  0.52482551    -0.26900
C3496       C  0.47928619  0.36554260  0.55240307    -0.15000
C3497       C  0.47324974  0.35107839  0.58153685     0.35600
C3498       C  0.44988676  0.33916646  0.58300672    -0.26400
C3499       C  0.43259376  0.34185542  0.55601847    -0.15600
C3500       C  0.43914655  0.35572763  0.52650348     0.36700
N3501       N  0.42216256  0.35805153  0.49821077    -0.89900
H3502       H  0.46742415  0.37814766  0.50217748     0.17800
H3503       H  0.44478582  0.32856784  0.60581467     0.17800
N3504       N  0.49076117  0.34866493  0.60935605    -0.88900
H3505       H  0.43090534  0.35086215  0.47626376     0.35200
H3506       H  0.41878217  0.37727189  0.49406090     0.40300
H3507       H  0.50648992  0.33929925  0.59988327     0.39900
H3508       H  0.48341504  0.33718885  0.62877352     0.34800
C3509       C  0.64092063  0.61503269  0.78978346    -0.26900
C3510       C  0.61859842  0.60138166  0.79258550    -0.15000
C3511       C  0.60925515  0.59580851  0.82575605     0.35600
C3512       C  0.62050248  0.60652937  0.85482207    -0.26400
C3513       C  0.64062364  0.62329549  0.85149806    -0.15600
C3514       C  0.65188474  0.62638121  0.81879109     0.36700
N3515       N  0.67292943  0.64277133  0.81361397    -0.89900
H3516       H  0.64828831  0.61939287  0.76451531     0.17800
H3517       H  0.61161958  0.60411638  0.87966886     0.17800
N3518       N  0.58722472  0.58086593  0.83040617    -0.88900
H3519       H  0.68738499  0.63179797  0.80350345     0.35200
H3520       H  0.67952648  0.64982289  0.83698122     0.40300
H3521       H  0.59011931  0.56338304  0.81858809     0.39900
H3522       H  0.57224384  0.58979359  0.81825201     0.34800
C3523       C  0.45732466  0.57215987  0.82215117    -0.26900
C3524       C  0.45379288  0.59573378  0.83826961    -0.15000
C3525       C  0.46823250  0.61644722  0.82768885     0.35600
C3526       C  0.48790534  0.61253715  0.80449227    -0.26400
C3527       C  0.49322937  0.58836483  0.79129720    -0.15600
C3528       C  0.47708745  0.56817812  0.79895975     0.36700
N3529       N  0.48167416  0.54349941  0.78495369    -0.89900
H3530       H  0.44643466  0.55611006  0.83079795     0.17800
H3531       H  0.49954666  0.62840919  0.79724446     0.17800
N3532       N  0.46436513  0.64080803  0.84306778    -0.88900
H3533       H  0.46812424  0.53071751  0.79341384     0.35200
H3534       H  0.49872551  0.53716017  0.79478973     0.40300
H3535       H  0.44658913  0.64696474  0.83581237     0.39900
H3536       H  0.47701522  0.65396549  0.83315140     0.34800
C3537       C  0.51995871  0.61320752  0.55429265    -0.26900
C3538       C  0.51202812  0.58993163  0.54076514    -0.15000
C3539       C  0.52582818  0.56791637  0.54791180     0.35600
C3540       C  0.54543477  0.56921770  0.57183161    -0.26400
C3541       C  0.55106517  0.59200232  0.58879632    -0.15600
C3542       C  0.53965242  0.61448700  0.57791758     0.36700
N3543       N  0.54630263  0.63807750  0.59370894    -0.89900
H3544       H  0.51028428  0.63040358  0.54707113     0.17800
H3545       H  0.55424060  0.55188491  0.58048269     0.17800
N3546       N  0.51896517  0.54420547  0.53262922    -0.88900
H3547       H  0.53561865  0.65282339  0.58349729     0.35200
H3548       H  0.56484159  0.64186929  0.58715816     0.40300
H3549       H  0.51102100  0.52946546  0.05345912     0.39900
H3550       H  0.53098579  0.52984992  0.54086498     0.34800
C3551       C  0.54992752  0.49220650  0.61235200    -0.26900
C3552       C  0.57296789  0.48290768  0.60046075    -0.15000
C3553       C  0.59484845  0.49085062  0.61769948     0.35600
C3554       C  0.59334921  0.50818139  0.64523313    -0.26400
C3555       C  0.57026279  0.51731188  0.65723975    -0.15600
C3556       C  0.54836886  0.50886754  0.64054289     0.36700
N3557       N  0.52438891  0.51768387  0.65144254    -0.89900
H3558       H  0.53276226  0.48575494  0.60055702     0.17800
H3559       H  0.61044819  0.51476436  0.65707923     0.17800
N3560       N  0.61872183  0.48140772  0.60734742    -0.88900
H3561       H  0.51362769  0.50196353  0.65815857     0.35200
H3562       H  0.51580939  0.52662540  0.63054975     0.40300
H3563       H  0.62686520  0.47243738  0.62854640     0.39900
H3564       H  0.62993181  0.49680536  0.60066471     0.34800
C3565       C  0.85259117  0.61802644  0.71848532    -0.26900
C3566       C  0.87354487  0.60220113  0.71628111    -0.15000
C3567       C  0.88258307  0.59558926  0.68344343     0.35600
C3568       C  0.87274242  0.60726704  0.65383299    -0.26400
C3569       C  0.85418587  0.62581964  0.65659822    -0.15600
C3570       C  0.84297422  0.63012466  0.68892898     0.36700
N3571       N  0.82351307  0.64866899  0.69198208    -0.89900
H3572       H  0.84579641  0.62349168  0.74364300     0.17800
H3573       H  0.88163845  0.60398159  0.62920869     0.17800
N3574       N  0.90358584  0.57900269  0.68049180    -0.88900
H3575       H  0.81756831  0.65009995  0.71751947     0.35200
H3576       H  0.80823858  0.64217725  0.67780072     0.40300
H3577       H  0.91800370  0.58882647  0.66827034     0.39900
H3578       H  0.89843455  0.56391700  0.66469143     0.34800
C3579       C  0.03317178  0.58889383  0.68277296    -0.26900
C3580       C  0.02099252  0.58704732  0.65097259    -0.15000
C3581       C  0.99615965  0.57776209  0.64993504     0.35600
C3582       C  0.98292399  0.57440996  0.68031540    -0.26400
C3583       C  0.99398805  0.57950465  0.71192818    -0.15600
C3584       C  0.01976372  0.58499794  0.71347777     0.36700
N3585       N  0.03193749  0.58806238  0.74600680    -0.89900
H3586       H  0.05247653  0.59487958  0.68390772     0.17800
H3587       H  0.96332630  0.56941712  0.67904522     0.17800
N3588       N  0.98385428  0.57256327  0.61794897    -0.88900
H3589       H  0.04646424  0.57491542  0.74732661     0.35200
H3590       H  0.03989210  0.60604803  0.74684869     0.40300
H3591       H  0.96813552  0.58420729  0.61620642     0.39900
H3592       H  0.97766218  0.55384807  0.61852127     0.34800
C3593       C  0.94896203  0.61767066  0.93375510    -0.26900
C3594       C  0.93959909  0.59496288  0.92135342    -0.15000
C3595       C  0.94634962  0.57211445  0.93795532     0.35600
C3596       C  0.96648374  0.57191443  0.96094358    -0.26400
C3597       C  0.97909065  0.59435561  0.96850028    -0.15600
C3598       C  0.96875981  0.61762696  0.95705343     0.36700
N3599       N  0.97875026  0.64135380  0.96808446    -0.89900
H3600       H  0.94341954  0.63534312  0.92182984     0.17800
H3601       H  0.97304861  0.55409907  0.97131269     0.17800
N3602       N  0.93477232  0.54858905  0.92902091    -0.88900
H3603       H  0.96421845  0.65163874  0.97923917     0.35200
H3604       H  0.98485537  0.65125751  0.94636981     0.40300
H3605       H  0.91952404  0.55195392  0.91290884     0.39900
H3606       H  0.92732233  0.54088373  0.95155948     0.34800
C3607       C  0.88064972  0.40235214  0.56844324    -0.26900
C3608       C  0.87667151  0.39272564  0.53522227    -0.15000
C3609       C  0.85898555  0.37327826  0.53073060     0.35600
C3610       C  0.84836768  0.36151121  0.55986589    -0.26400
C3611       C  0.85464815  0.36923809  0.59336512    -0.15600
C3612       C  0.86963029  0.39100306  0.59739787     0.36700
N3613       N  0.87599728  0.40038786  0.63080696    -0.89900
H3614       H  0.89436131  0.41712515  0.57225661     0.17800
H3615       H  0.83705873  0.34472684  0.55653406     0.17800
N3616       N  0.85419039  0.36360382  0.49683825    -0.88900
H3617       H  0.88520231  0.38615568  0.64449952     0.35200
H3618       H  0.85944961  0.40477990  0.64370589     0.40300
H3619       H  0.84455154  0.37729173  0.98471813     0.39900
H3620       H  0.84135555  0.34875767  0.49789086     0.34800
C3621       C  0.02408428  0.43795697  0.54427861    -0.26900
C3622       C  0.00637396  0.41861084  0.54098748    -0.15000
C3623       C  0.01043773  0.39559552  0.55860985     0.35600
C3624       C  0.02970584  0.39363578  0.58281927    -0.26400
C3625       C  0.04505070  0.41431645  0.58986919    -0.15600
C3626       C  0.04348977  0.43594958  0.56862004     0.36700
N3627       N  0.06034058  0.45663704  0.57416063    -0.89900
H3628       H  0.02201945  0.45510349  0.52929089     0.17800
H3629       H  0.03076650  0.37690531  0.59888725     0.17800
N3630       N  0.99471074  0.37423284  0.55239041    -0.88900
H3631       H  0.05671536  0.47122991  0.55670462     0.35200
H3632       H  0.07834548  0.45015375  0.56882512     0.40300
H3633       H  0.98578811  0.36954558  0.57536105     0.39900
H3634       H  0.00598155  0.35903944  0.54506236     0.34800
C3635       C  0.96439449  0.43593523  0.79023242    -0.26900
C3636       C  0.98665859  0.42199627  0.78899000    -0.15000
C3637       C  0.98830675  0.39912486  0.80766983     0.35600
C3638       C  0.96881080  0.39181118  0.82922874    -0.26400
C3639       C  0.94856607  0.40787442  0.83491429    -0.15600
C3640       C  0.94544905  0.42933951  0.81372233     0.36700
N3641       N  0.92376757  0.44506934  0.81764202    -0.89900
H3642       H  0.96246174  0.45276049  0.77455306     0.17800
H3643       H  0.97139407  0.37538414  0.84556949     0.17800
N3644       N  0.01010664  0.38352783  0.80567115    -0.88900
H3645       H  0.92427285  0.46006831  0.80012345     0.35200
H3646       H  0.92430728  0.45312295  0.84213990     0.40300
H3647       H  0.01814685  0.38265606  0.83012168     0.39900
H3648       H  0.00461556  0.36531136  0.79858222     0.34800
C3649       C  0.89581590  0.30744148  0.97152241    -0.26900
C3650       C  0.90263762  0.32140236  0.94234923    -0.15000
C3651       C  0.89779755  0.31181000  0.90941388     0.35600
C3652       C  0.88662114  0.28804267  0.90609612    -0.26400
C3653       C  0.87948527  0.27400701  0.93525647    -0.15600
C3654       C  0.88397907  0.28397036  0.96825830     0.36700
N3655       N  0.87697405  0.27021393  0.99846497    -0.89900
H3656       H  0.89930753  0.31501699  0.99697315     0.17800
H3657       H  0.88310180  0.28078117  0.88054881     0.17800
N3658       N  0.90443292  0.32601813  0.87938953    -0.88900
H3659       H  0.86471644  0.28144420  0.01272272     0.35200
H3660       H  0.89301394  0.26736203  0.01328136     0.40300
H3661       H  0.88825810  0.32891543  0.86486159     0.39900
H3662       H  0.91668052  0.31508099  0.86470168     0.34800
C3663       C  0.95036596  0.49022376  0.88927439    -0.26900
C3664       C  0.92834200  0.48266955  0.90600277    -0.15000
C3665       C  0.90561388  0.49411893  0.89555115     0.35600
C3666       C  0.90555561  0.51254053  0.86932974    -0.26400
C3667       C  0.92766157  0.52000438  0.85246502    -0.15600
C3668       C  0.95026247  0.50840096  0.86280573     0.36700
N3669       N  0.97345544  0.51538800  0.84720024    -0.89900
H3670       H  0.96791400  0.48129457  0.89594485     0.17800
H3671       H  0.88804477  0.52155461  0.86272382     0.17800
N3672       N  0.88238079  0.48815085  0.91181878    -0.88900
H3673       H  0.98150492  0.49914658  0.83668336     0.35200
H3674       H  0.98530767  0.52214048  0.86647259     0.40300
H3675       H  0.88442472  0.49061302  0.93835189     0.39900
H3676       H  0.87788703  0.46932458  0.90685288     0.34800
C3677       C  0.03768052  0.35744779  0.96945935    -0.26900
C3678       C  0.02151839  0.35960891  0.94125099    -0.15000
C3679       C  0.02864344  0.34933354  0.90936882     0.35600
C3680       C  0.05275166  0.33901795  0.90560124    -0.26400
C3681       C  0.06979799  0.33872278  0.93322114    -0.15600
C3682       C  0.06160353  0.34729197  0.96588620     0.36700
N3683       N  0.08947649  0.38608708  0.47637277    -0.89900
H3684       H  0.03204997  0.36472276  0.99432524     0.17800
H3685       H  0.05855573  0.33211941  0.88062888     0.17800
N3686       N  0.01137113  0.34932530  0.88112190    -0.88900
H3687       H  0.10204515  0.39302582  0.45812727     0.35200
H3688       H  0.09853514  0.37356685  0.49303598     0.40300
H3689       H  0.99610789  0.33820428  0.88826218     0.39900
H3690       H  0.01932829  0.34059782  0.85965396     0.34800
C3691       C  0.05068559  0.66829439  0.78210481    -0.26900
C3692       C  0.06251030  0.67023576  0.81398523    -0.15000
C3693       C  0.05041259  0.66130436  0.84378256     0.35600
C3694       C  0.02714865  0.64931993  0.84100744    -0.26400
C3695       C  0.01541938  0.64671587  0.80892712    -0.15600
C3696       C  0.02708487  0.65709692  0.77933217     0.36700
N3697       N  0.01547797  0.65565883  0.74616041    -0.89900
H3698       H  0.06002031  0.67506994  0.75914487     0.17800
H3699       H  0.01841155  0.64175370  0.86394930     0.17800
N3700       N  0.06223360  0.66343429  0.87671939    -0.88900
H3701       H  0.01300970  0.67408347  0.73704966     0.35200
H3702       H  0.02762338  0.64644957  0.72930222     0.40300
H3703       H  0.06420740  0.64529331  0.88704504     0.39900
H3704       H  0.05037121  0.67366692  0.89286893     0.34800
C3705       C  0.14361821  0.62830447  0.92696209    -0.26900
C3706       C  0.13293237  0.62453542  0.89426269    -0.15000
C3707       C  0.11289624  0.60744015  0.89122759     0.35600
C3708       C  0.10233048  0.59672613  0.92117638    -0.26400
C3709       C  0.11100214  0.60309471  0.95430070    -0.15600
C3710       C  0.13296443  0.61771044  0.95697637     0.36700
N3711       N  0.14264362  0.62421176  0.99028923    -0.89900
H3712       H  0.15875109  0.64174735  0.92948132     0.17800
H3713       H  0.08554593  0.58545648  0.91885241     0.17800
N3714       N  0.10183999  0.60284631  0.85810325    -0.88900
H3715       H  0.15810457  0.63612064  0.98792116     0.35200
H3716       H  0.14872604  0.62542374  0.51408168     0.40300
H3717       H  0.09388965  0.61972576  0.84942051     0.39900
H3718       H  0.08722911  0.58986271  0.86022359     0.34800
C3719       C  0.09926727  0.78447326  0.82527505    -0.26900
C3720       C  0.12479405  0.78074438  0.81887914    -0.15000
C3721       C  0.13972357  0.80177792  0.81010715     0.35600
C3722       C  0.12876008  0.82585892  0.80686138    -0.26400
C3723       C  0.10310723  0.82921780  0.81223340    -0.15600
C3724       C  0.08830369  0.80843591  0.82202097     0.36700
N3725       N  0.06207916  0.81180209  0.82836535    -0.89900
H3726       H  0.08770222  0.76853198  0.83245120     0.17800
H3727       H  0.14019336  0.84182319  0.79940462     0.17800
N3728       N  0.16604377  0.79889174  0.80521277    -0.88900
H3729       H  0.06024830  0.82371778  0.84964744     0.35200
H3730       H  0.05375743  0.79464403  0.83514509     0.40300
H3731       H  0.17516062  0.81053459  0.82290512     0.39900
H3732       H  0.17047693  0.80529006  0.78051817     0.34800
C3733       C  0.38047069  0.61134938  0.60923971    -0.26900
C3734       C  0.35890104  0.62596527  0.60402679    -0.15000
C3735       C  0.34823971  0.62639329  0.57069205     0.35600
C3736       C  0.36104686  0.61521134  0.54270835    -0.26400
C3737       C  0.38451317  0.60383408  0.54722612    -0.15600
C3738       C  0.39347137  0.60067292  0.58131908     0.36700
N3739       N  0.41653395  0.58791565  0.58812860    -0.89900
H3740       H  0.38897609  0.61075380  0.63453209     0.17800
H3741       H  0.35396956  0.61782822  0.51682957     0.17800
N3742       N  0.32541584  0.64001200  0.56498520    -0.88900
H3743       H  0.43103892  0.59755094  0.57591778     0.35200
H3744       H  0.41540428  0.56976585  0.57768436     0.40300
H3745       H  0.31144349  0.63093113  0.57909929     0.39900
H3746       H  0.32014864  0.63894926  0.53912704     0.34800
C3747       C  0.46543988  0.64973479  0.72211515    -0.26900
C3748       C  0.47625394  0.63779520  0.69340438    -0.15000
C3749       C  0.46271464  0.63668391  0.66230386     0.35600
C3750       C  0.43870508  0.64734431  0.66081686    -0.26400
C3751       C  0.42776681  0.65889963  0.68975839    -0.15600
C3752       C  0.44144522  0.66001893  0.72074996     0.36700
N3753       N  0.43176151  0.67183200  0.75106913    -0.89900
H3754       H  0.47544411  0.65052302  0.74631319     0.17800
H3755       H  0.42830290  0.64631511  0.63694208     0.17800
N3756       N  0.47330861  0.62482729  0.63241264    -0.88900
H3757       H  0.41598021  0.66192585  0.75921654     0.35200
H3758       H  0.42668571  0.69038609  0.74501073     0.40300
H3759       H  0.48891538  0.63537687  0.62507565     0.39900
H3760       H  0.46083626  0.62550925  0.61174948     0.34800
C3761       C  0.24494418  0.66282661  0.71570130    -0.26900
C3762       C  0.26848935  0.66437375  0.73098131    -0.15000
C3763       C  0.26997518  0.66229959  0.76745388     0.35600
C3764       C  0.24824587  0.66368272  0.78757677    -0.26400
C3765       C  0.22462917  0.66374713  0.77227152    -0.15600
C3766       C  0.22318062  0.66062600  0.73595901     0.36700
N3767       N  0.19964556  0.65586462  0.71955350    -0.89900
H3768       H  0.24352444  0.66333388  0.68790335     0.17800
H3769       H  0.24985361  0.66468788  0.81533068     0.17800
N3770       N  0.29324562  0.65923940  0.78495314    -0.88900
H3771       H  0.19319204  0.63847079  0.72867819     0.35200
H3772       H  0.20225897  0.65310400  0.69319290     0.40300
H3773       H  0.30179160  0.64281331  0.77584483     0.39900
H3774       H  0.30457863  0.67453244  0.77917186     0.34800
C3775       C  0.40395107  0.77759450  0.68921170    -0.26900
C3776       C  0.37850000  0.77591315  0.68105450    -0.15000
C3777       C  0.36422592  0.79835308  0.67920582     0.35600
C3778       C  0.37541828  0.82165902  0.68601019    -0.26400
C3779       C  0.40074890  0.82341844  0.69476406    -0.15600
C3780       C  0.41515645  0.80102454  0.69619821     0.36700
N3781       N  0.44117546  0.80186238  0.70451304    -0.89900
H3782       H  0.41520044  0.76061214  0.69069004     0.17800
H3783       H  0.36395014  0.83849730  0.68472836     0.17800
N3784       N  0.33834347  0.79776325  0.66997820    -0.88900
H3785       H  0.45111593  0.79392323  0.68407216     0.35200
H3786       H  0.44412688  0.79062974  0.72628815     0.40300
H3787       H  0.33586194  0.80899614  0.64809186     0.39900
H3788       H  0.32809961  0.80579523  0.69006622     0.34800
C3789       C  0.04588058  0.82641063  0.59854190    -0.26900
C3790       C  0.06026700  0.82077538  0.56940073    -0.15000
C3791       C  0.04875281  0.82028012  0.53671127     0.35600
C3792       C  0.02382824  0.82778933  0.53345023    -0.26400
C3793       C  0.01056683  0.83660844  0.56208285    -0.15600
C3794       C  0.02122145  0.83475332  0.59501735     0.36700
N3795       N  0.00753366  0.84301171  0.62459053    -0.89900
H3796       H  0.05442476  0.82645298  0.62382562     0.17800
H3797       H  0.01564115  0.82911899  0.50801544     0.17800
N3798       N  0.06201694  0.81273069  0.50647184    -0.88900
H3799       H  0.00649003  0.82790819  0.64189044     0.35200
H3800       H  0.01758354  0.85754734  0.63637270     0.40300
H3801       H  0.06894213  0.79452711  0.51063452     0.39900
H3802       H  0.07910020  0.82447529  0.99863804     0.34800
C3803       C  0.09792153  0.90848030  0.67281778    -0.26900
C3804       C  0.10844253  0.90401046  0.70553842    -0.15000
C3805       C  0.13182652  0.89179993  0.70714935     0.35600
C3806       C  0.14224402  0.88120114  0.67716335    -0.26400
C3807       C  0.12976914  0.88248087  0.64536327    -0.15600
C3808       C  0.10828953  0.89783106  0.64290913     0.36700
N3809       N  0.09527650  0.90082973  0.61096890    -0.89900
H3810       H  0.08010499  0.91806481  0.67088463     0.17800
H3811       H  0.15867351  0.86937827  0.67957393     0.17800
N3812       N  0.14367657  0.88752457  0.73966363    -0.88900
H3813       H  0.08970580  0.88304256  0.60220636     0.35200
H3814       H  0.10769963  0.90849700  0.59305429     0.40300
H3815       H  0.16161261  0.89522096  0.73850274     0.39900
H3816       H  0.14542711  0.86802536  0.74327388     0.34800
C3817       C  0.17335782  0.73675026  0.66056496    -0.26900
C3818       C  0.16837367  0.76193878  0.66969899    -0.15000
C3819       C  0.15412896  0.76674140  0.69963961     0.35600
C3820       C  0.14593105  0.74640641  0.71989635    -0.26400
C3821       C  0.15264606  0.72145904  0.71216796    -0.15600
C3822       C  0.16579025  0.71662899  0.68162239     0.36700
N3823       N  0.17214010  0.69135253  0.67227331    -0.89900
H3824       H  0.18326560  0.73252494  0.63697321     0.17800
H3825       H  0.13602778  0.75023679  0.74357842     0.17800
N3826       N  0.14850520  0.79220942  0.70991828    -0.88900
H3827       H  0.16366653  0.68748178  0.64863040     0.35200
H3828       H  0.19142667  0.69082592  0.66838956     0.40300
H3829       H  0.16537919  0.80104899  0.71596909     0.39900
H3830       H  0.13770673  0.79238700  0.73230790     0.34800
C3831       C  0.18389798  0.77862794  0.95120367    -0.26900
C3832       C  0.15976846  0.78382455  0.96393516    -0.15000
C3833       C  0.13903686  0.77189043  0.94902385     0.35600
C3834       C  0.14315921  0.75342598  0.92379893    -0.26400
C3835       C  0.16747786  0.74721331  0.91284197    -0.15600
C3836       C  0.18793753  0.76072512  0.92548278     0.36700
N3837       N  0.21282239  0.75492591  0.91416239    -0.89900
H3838       H  0.20001589  0.78721241  0.96317487     0.17800
H3839       H  0.12732473  0.74339575  0.91320114     0.17800
N3840       N  0.11417402  0.77747090  0.96067850    -0.88900
H3841       H  0.22593238  0.76542622  0.92800719     0.35200
H3842       H  0.21438056  0.76085795  0.88860275     0.40300
H3843       H  0.11263370  0.77148094  0.98621843     0.39900
H3844       H  0.10105886  0.76711363  0.94665082     0.34800
C3845       C  0.11295573  0.69078814  0.54207947    -0.26900
C3846       C  0.10088531  0.67828434  0.56929867    -0.15000
C3847       C  0.10294829  0.68841139  0.60283145     0.35600
C3848       C  0.11582589  0.71125990  0.60793073    -0.26400
C3849       C  0.12725249  0.72413228  0.58034613    -0.15600
C3850       C  0.12612482  0.71330772  0.54721916     0.36700
N3851       N  0.13738233  0.72559059  0.51825547    -0.89900
H3852       H  0.11182294  0.68323790  0.51621856     0.17800
H3853       H  0.11663335  0.71915767  0.63361148     0.17800
N3854       N  0.09139808  0.67655546  0.63186470    -0.88900
H3855       H  0.12347038  0.72899159  0.49997792     0.35200
H3856       H  0.15030115  0.71314152  0.50738258     0.40300
H3857       H  0.09915508  0.65858518  0.63499244     0.39900
H3858       H  0.07232961  0.67465920  0.62684696     0.34800
C3859       C  0.43126134  0.87730869  0.95136794    -0.26900
C3860       C  0.42851093  0.85091659  0.95120487    -0.15000
C3861       C  0.45012346  0.83548904  0.95051114     0.35600
C3862       C  0.47380194  0.84689246  0.94992389    -0.26400
C3863       C  0.47631737  0.87324544  0.94954735    -0.15600
C3864       C  0.45486321  0.88852814  0.95044798     0.36700
N3865       N  0.44429502  0.90109879  0.46072323    -0.89900
H3866       H  0.40300594  0.87416382  0.45340121     0.17800
H3867       H  0.49040282  0.83519326  0.94988573     0.17800
N3868       N  0.44804251  0.80840493  0.95048988    -0.88900
H3869       H  0.43691143  0.90107793  0.48561444     0.35200
H3870       H  0.43311336  0.91277170  0.44542262     0.40300
H3871       H  0.44019966  0.80301309  0.97400006     0.39900
H3872       H  0.46567140  0.79998456  0.94932088     0.34800
C3873       C  0.37393217  0.90172027  0.85809714    -0.26900
C3874       C  0.35605626  0.88239454  0.85729967    -0.15000
C3875       C  0.34601851  0.87506454  0.82535856     0.35600
C3876       C  0.35597687  0.88489048  0.79465272    -0.26400
C3877       C  0.37623757  0.90165345  0.79533773    -0.15600
C3878       C  0.38408356  0.91152776  0.82747006     0.36700
N3879       N  0.40385052  0.92977886  0.82997735    -0.89900
H3880       H  0.38203863  0.90726548  0.88249706     0.17800
H3881       H  0.34992258  0.87698062  0.77033693     0.17800
N3882       N  0.32749413  0.85559339  0.82402853    -0.88900
H3883       H  0.39657058  0.94569756  0.84230563     0.35200
H3884       H  0.40943068  0.93590519  0.80561313     0.40300
H3885       H  0.33467868  0.84051582  0.80977818     0.39900
H3886       H  0.31199191  0.86273217  0.81089746     0.34800
C3887       C  0.30989776  0.74838288  0.83016875    -0.26900
C3888       C  0.33203959  0.75867789  0.84277410    -0.15000
C3889       C  0.35514132  0.74799993  0.83249134     0.35600
C3890       C  0.35575067  0.72883970  0.80764636    -0.26400
C3891       C  0.33370723  0.72030736  0.79258385    -0.15600
C3892       C  0.31054530  0.72962466  0.80476825     0.36700
N3893       N  0.28761594  0.72098292  0.78996424    -0.89900
H3894       H  0.29209559  0.75575481  0.83874693     0.17800
H3895       H  0.37358147  0.72209767  0.79823421     0.17800
N3896       N  0.37812639  0.75666117  0.84710033    -0.88900
H3897       H  0.27657972  0.71359306  0.80973145     0.35200
H3898       H  0.27828237  0.73656281  0.77953922     0.40300
H3899       H  0.38950043  0.76319318  0.82714127     0.39900
H3900       H  0.38701181  0.74122430  0.85863011     0.34800
C3901       C  0.29909011  0.77596945  0.54357678    -0.26900
C3902       C  0.32106252  0.79000303  0.53743721    -0.15000
C3903       C  0.34028848  0.78950388  0.56154871     0.35600
C3904       C  0.33898048  0.77219063  0.58859948    -0.26400
C3905       C  0.31896275  0.75492089  0.59134161    -0.15600
C3906       C  0.29788120  0.75817918  0.57045631     0.36700
N3907       N  0.27657241  0.74200165  0.57439381    -0.89900
H3908       H  0.28404498  0.77680022  0.52495488     0.17800
H3909       H  0.35488604  0.77067085  0.60569120     0.17800
N3910       N  0.36222924  0.80449393  0.55660738    -0.88900
H3911       H  0.26301677  0.74641242  0.55598767     0.35200
H3912       H  0.26863886  0.74595520  0.59835142     0.40300
H3913       H  0.37752096  0.79231533  0.55459895     0.39900
H3914       H  0.36473459  0.81558183  0.57857401     0.34800
C3915       C  0.24225138  0.83557006  0.96853551    -0.26900
C3916       C  0.26579617  0.83999087  0.98290900    -0.15000
C3917       C  0.26455877  0.84368175  0.50800878     0.35600
C3918       C  0.24403411  0.84381022  0.53054149    -0.26400
C3919       C  0.21965076  0.84115962  0.51830876    -0.15600
C3920       C  0.22042967  0.83633765  0.98896772     0.36700
N3921       N  0.19639897  0.83520795  0.97269569    -0.89900
H3922       H  0.24081358  0.83195260  0.94118242     0.17800
H3923       H  0.24719869  0.84610358  0.55789467     0.17800
N3924       N  0.28848364  0.84975686  0.52221768    -0.88900
H3925       H  0.19829801  0.83351359  0.94602713     0.35200
H3926       H  0.18758095  0.85254965  0.97684717     0.40300
H3927       H  0.30162461  0.85302838  0.50301555     0.39900
H3928       H  0.29426446  0.83464126  0.53754961     0.34800
C3929       C  0.40363642  0.73052578  0.94952040    -0.26900
C3930       C  0.37787188  0.73171022  0.94324346    -0.15000
C3931       C  0.36453786  0.70904413  0.93805883     0.35600
C3932       C  0.37708767  0.68590181  0.93936853    -0.26400
C3933       C  0.40289814  0.68451587  0.94587680    -0.15600
C3934       C  0.41632707  0.70726603  0.95099200     0.36700
N3935       N  0.44275057  0.70683337  0.95735472    -0.89900
H3936       H  0.41397980  0.74793716  0.95292094     0.17800
H3937       H  0.36634752  0.66879615  0.93557651     0.17800
N3938       N  0.33842782  0.70892265  0.93017357    -0.88900
H3939       H  0.44955412  0.72510680  0.96134353     0.35200
H3940       H  0.45142088  0.70010308  0.93508953     0.40300
H3941       H  0.33545744  0.71993233  0.90819045     0.39900
H3942       H  0.32871977  0.71688318  0.95078326     0.34800
C3943       C  0.53122131  0.85352261  0.72497433    -0.26900
C3944       C  0.51825277  0.86252379  0.69593893    -0.15000
C3945       C  0.52874631  0.85912411  0.66293871     0.35600
C3946       C  0.55220276  0.84732736  0.65988990    -0.26400
C3947       C  0.56545414  0.83928801  0.68911485    -0.15600
C3948       C  0.55473774  0.84233940  0.72192487     0.36700
N3949       N  0.56734495  0.83429015  0.75254253    -0.89900
H3950       H  0.52348786  0.85611664  0.75049104     0.17800
H3951       H  0.56063454  0.84524467  0.63470898     0.17800
N3952       N  0.51573867  0.86781905  0.63280536    -0.88900
H3953       H  0.58410003  0.84424051  0.75466096     0.35200
H3954       H  0.57144772  0.81505942  0.75018870     0.40300
H3955       H  0.49931189  0.85729721  0.63069198     0.39900
H3956       H  0.52616982  0.86414830  0.61064263     0.34800
C3957       C  0.67456683  0.77183310  0.83859298    -0.26900
C3958       C  0.66321792  0.74813056  0.83398519    -0.15000
C3959       C  0.64654820  0.74485446  0.80602639     0.35600
C3960       C  0.64218236  0.76485296  0.78326419    -0.26400
C3961       C  0.65442868  0.78798866  0.78713946    -0.15600
C3962       C  0.67050001  0.79156882  0.81520705     0.36700
N3963       N  0.68355529  0.81491599  0.81921129    -0.89900
H3964       H  0.68690757  0.77510058  0.86021107     0.17800
H3965       H  0.63055140  0.76161528  0.76086398     0.17800
N3966       N  0.63420153  0.72123709  0.80014415    -0.88900
H3967       H  0.67886393  0.82243143  0.84320881     0.35200
H3968       H  0.70261429  0.81080389  0.81948690     0.40300
H3969       H  0.63916867  0.71476017  0.77569399     0.39900
H3970       H  0.61495436  0.72444456  0.80030886     0.34800
C3971       C  0.67689185  0.73179262  0.58801666    -0.26900
C3972       C  0.66346129  0.75458159  0.58553182    -0.15000
C3973       C  0.64371326  0.75611169  0.56125888     0.35600
C3974       C  0.63923218  0.73599707  0.53871732    -0.26400
C3975       C  0.65441478  0.71452920  0.53889545    -0.15600
C3976       C  0.67277629  0.71201699  0.56471950     0.36700
N3977       N  0.68819971  0.68995803  0.56679065    -0.89900
H3978       H  0.69129745  0.72960693  0.60734683     0.17800
H3979       H  0.62547562  0.73839613  0.51849094     0.17800
N3980       N  0.62844419  0.77825905  0.55856758    -0.88900
H3981       H  0.69808821  0.68806417  0.54379187     0.35200
H3982       H  0.67655160  0.67424277  0.56945910     0.40300
H3983       H  0.60987485  0.77293531  0.56244459     0.39900
H3984       H  0.63006461  0.78538237  0.53355555     0.34800
C3985       C  0.62897101  0.89148979  0.54241426    -0.26900
C3986       C  0.60400513  0.89939201  0.54533679    -0.15000
C3987       C  0.59331154  0.90078467  0.57852749     0.35600
C3988       C  0.60690439  0.89225233  0.60745449    -0.26400
C3989       C  0.63075561  0.88149532  0.60399797    -0.15600
C3990       C  0.64218452  0.88218131  0.57131935     0.36700
N3991       N  0.66642361  0.87131035  0.56689649    -0.89900
H3992       H  0.63735284  0.88995959  0.51714172     0.17800
H3993       H  0.59762138  0.89113259  0.63218525     0.17800
N3994       N  0.56786707  0.90891989  0.58230062    -0.88900
H3995       H  0.67809552  0.88517202  0.55650436     0.35200
H3996       H  0.66498953  0.85664482  0.54901789     0.40300
H3997       H  0.56697157  0.92784858  0.57469246     0.39900
H3998       H  0.56244919  0.90829619  0.60812599     0.34800
C3999       C  0.63455786  0.70681790  0.69885185    -0.26900
C4000       C  0.62075901  0.72641207  0.68344625    -0.15000
C4001       C  0.59575448  0.72159417  0.67374724     0.35600
C4002       C  0.58531766  0.69757914  0.67901862    -0.26400
C4003       C  0.59925442  0.67793432  0.69369492    -0.15600
C4004       C  0.62403935  0.68272400  0.70427050     0.36700
N4005       N  0.63816487  0.66336454  0.72142927    -0.89900
H4006       H  0.65364598  0.71026726  0.70669926     0.17800
H4007       H  0.56615450  0.69424477  0.67136813     0.17800
N4008       N  0.58061305  0.74113042  0.65904793    -0.88900
H4009       H  0.62929303  0.65971106  0.74485837     0.35200
H4010       H  0.65605304  0.66985395  0.72747764     0.40300
H4011       H  0.56499603  0.74364794  0.67477970     0.39900
H4012       H  0.57443573  0.73500316  0.63494858     0.34800
C4013       C  0.94285042  0.82956704  0.78693666    -0.26900
C4014       C  0.93197666  0.82910703  0.81974135    -0.15000
C4015       C  0.94688810  0.83396613  0.84886487     0.35600
C4016       C  0.97161304  0.84188605  0.84456755    -0.26400
C4017       C  0.98200625  0.84413173  0.81166053    -0.15600
C4018       C  0.96809968  0.83633074  0.78274473     0.36700
N4019       N  0.97918981  0.83701237  0.74910566    -0.89900
H4020       H  0.93153064  0.82516011  0.76464213     0.17800
H4021       H  0.98222871  0.84785871  0.86686284     0.17800
N4022       N  0.93646051  0.83250878  0.88274983    -0.88900
H4023       H  0.96641948  0.83092744  0.73056354     0.35200
H4024       H  0.99379001  0.82391584  0.74894332     0.40300
H4025       H  0.93817009  0.85023935  0.89433222     0.39900
H4026       H  0.94704857  0.81961455  0.89700283     0.34800
C4027       C  0.85236401  0.87749006  0.93546085    -0.26900
C4028       C  0.86211325  0.88130687  0.90223221    -0.15000
C4029       C  0.88261340  0.89767599  0.89849228     0.35600
C4030       C  0.89439914  0.90781810  0.92786673    -0.26400
C4031       C  0.88643700  0.90157115  0.96142259    -0.15600
C4032       C  0.86428703  0.88726226  0.96503910     0.36700
N4033       N  0.85556961  0.88020554  0.99866769    -0.89900
H4034       H  0.83696071  0.86443440  0.93861799     0.17800
H4035       H  0.91132985  0.91871058  0.92442577     0.17800
N4036       N  0.89321507  0.90181092  0.86514977    -0.88900
H4037       H  0.84010306  0.86825254  0.99687814     0.35200
H4038       H  0.84734678  0.88891714  0.50463969     0.40300
H4039       H  0.91164418  0.89532407  0.86553708     0.39900
H4040       H  0.89356313  0.92128048  0.86063249     0.34800
C4041       C  0.84801609  0.74765165  0.69266672    -0.26900
C4042       C  0.82649300  0.74898966  0.67192211    -0.15000
C4043       C  0.81238237  0.77145253  0.67170973     0.35600
C4044       C  0.81906300  0.79124387  0.69362685    -0.26400
C4045       C  0.83945129  0.78910894  0.71608554    -0.22000
C4046       C  0.85470309  0.76752981  0.71457367     0.36700
N4047       N  0.87639332  0.76547809  0.73622401    -0.89900
H4048       H  0.85979734  0.73103269  0.69185015     0.17800
H4049       H  0.80709357  0.80759673  0.69482565     0.17800
N4050       N  0.79080929  0.77403460  0.65020647    -0.88900
H4051       H  0.88568481  0.74842091  0.73178826     0.35200
H4052       H  0.87049663  0.76494328  0.76177968     0.40300
H4053       H  0.79346391  0.78973077  0.63426105     0.39900
H4054       H  0.77540690  0.77765660  0.66594627     0.34800
C4055       C  0.85203868  0.75431160  0.93063254    -0.26900
C4056       C  0.82835906  0.75531244  0.91488783    -0.15000
C4057       C  0.81242173  0.73427789  0.91765890     0.35600
C4058       C  0.81918151  0.71408826  0.93902798    -0.26400
C4059       C  0.84150962  0.71465997  0.95792747    -0.15600
C4060       C  0.85887810  0.73396169  0.95180260     0.36700
N4061       N  0.88024094  0.72452643  0.48216887    -0.89900
H4062       H  0.86505992  0.76974527  0.92712702     0.17800
H4063       H  0.80562580  0.69932410  0.94401771     0.17800
N4064       N  0.78872742  0.73397943  0.90064053    -0.88900
H4065       H  0.89400270  0.73738912  0.47465038     0.35200
H4066       H  0.88774934  0.70649927  0.47852351     0.40300
H4067       H  0.77482396  0.73204594  0.91932272     0.39900
H4068       H  0.78812635  0.71804724  0.88479926     0.34800
C4069       C  0.77355113  0.83841427  0.73825680    -0.26900
C4070       C  0.76956503  0.83986351  0.77408801    -0.15000
C4071       C  0.74474381  0.84242057  0.78556247     0.35600
C4072       C  0.72488325  0.84188322  0.76165042    -0.26400
C4073       C  0.72867489  0.83779665  0.72599591    -0.15600
C4074       C  0.75371389  0.83688756  0.71422056     0.36700
N4075       N  0.75988695  0.83457619  0.67838064    -0.89900
H4076       H  0.79249595  0.83768849  0.72886548     0.17800
H4077       H  0.70604985  0.84354433  0.77139872     0.17800
N4078       N  0.73914904  0.84602217  0.82123834    -0.88900
H4079       H  0.77051017  0.85037672  0.67160581     0.35200
H4080       H  0.74397970  0.83536560  0.66298054     0.40300
H4081       H  0.74885988  0.86193180  0.82983478     0.39900
H4082       H  0.74543746  0.83031160  0.83503087     0.34800
C4083       C  0.85634341  0.70617227  0.81556710    -0.26900
C4084       C  0.87090585  0.72711503  0.82451864    -0.15000
C4085       C  0.89709973  0.72436930  0.82731133     0.35600
C4086       C  0.90801654  0.70059629  0.82164675    -0.26400
C4087       C  0.89336402  0.67951306  0.81331779    -0.15600
C4088       C  0.86729968  0.68246224  0.81005493     0.36700
N4089       N  0.85190626  0.66157966  0.80023906    -0.89900
H4090       H  0.83629064  0.70813025  0.81318664     0.17800
H4091       H  0.92806513  0.69850049  0.82383303     0.17800
N4092       N  0.91255741  0.74578324  0.83530767    -0.88900
H4093       H  0.84255527  0.66645624  0.77756954     0.35200
H4094       H  0.83856845  0.65881288  0.81949101     0.40300
H4095       H  0.91108970  0.75856158  0.81486425     0.39900
H4096       H  0.93132415  0.74049191  0.83672929     0.34800
loop_ 
_geom_bond_atom_site_label_1 
_geom_bond_atom_site_label_2 
_geom_bond_distance 
_geom_bond_site_symmetry_2 
_ccdc_geom_bond_type 
Fe1          O17   2.077       .  S
Fe1           O7   2.056       .  S
Fe1          O14   2.058       .  S
Fe1           O6   2.040       .  S
Fe1          O12   1.944       .  S
Fe2           O5   2.080       .  S
Fe2           O9   2.023       .  S
Fe2          O13   2.085       .  S
Fe2          O18   2.019       .  S
Fe2          O12   1.933       .  S
Fe3          O21   2.100       .  S
Fe3           O8   2.087       .  S
Fe3          O15   2.104       .  S
Fe3           O4   2.078       .  S
Fe3          O12   1.957       .  S
O4           C11   1.274       .  A
O5           C19   1.274       .  A
O6           C11   1.265       .  A
O7           C10   1.272       .  A
O8           C20   1.272       .  A
O9           C22   1.261       .  A
C10          O15   1.276       .  A
C10        C2022   1.503       .  S
C11        C1997   1.453       .  S
O13          C16   1.273       .  A
O14          C16   1.270       .  A
C16        C2036   1.483       .  S
O17          C22   1.269       .  A
O18          C20   1.258       .  A
C19          O21   1.280       .  A
C19        C1980   1.487       .  S
C20        C1966   1.453       .  S
C22        C2008   1.467       .  S
Fe23         O39   2.082       .  S
Fe23         O29   2.063       .  S
Fe23         O36   2.072       .  S
Fe23         O28   2.047       .  S
Fe23         O34   1.957       .  S
Fe24         O27   2.077       .  S
Fe24         O31   2.030       .  S
Fe24         O35   2.088       .  S
Fe24         O40   2.046       .  S
Fe24         O34   1.928       .  S
Fe25         O43   2.099       .  S
Fe25         O30   2.085       .  S
Fe25         O37   2.101       .  S
Fe25         O26   2.082       .  S
Fe25         O34   1.952       .  S
O26          C33   1.275       .  A
O27          C41   1.274       .  A
O28          C33   1.265       .  A
O29          C32   1.275       .  A
O30          C42   1.271       .  A
O31          C44   1.261       .  A
C32          O37   1.275       .  A
C32        C2025   1.496       .  S
C33        C1913   1.454       .  S
O35          C38   1.274       .  A
O36          C38   1.273       .  A
C38        C1952   1.491       .  S
O39          C44   1.269       .  A
O40          C42   1.264       .  A
C41          O43   1.281       .  A
C41        C1941   1.488       .  S
C42        C1899   1.471       .  S
C44        C1924   1.473       .  S
Fe45         O61   2.092       .  S
Fe45         O51   2.000       .  S
Fe45         O58   2.055       .  S
Fe45         O50   2.100       .  S
Fe45         O56   1.951       .  S
Fe46         O49   2.067       .  S
Fe46         O53   2.055       .  S
Fe46         O57   2.057       .  S
Fe46         O62   2.050       .  S
Fe46         O56   1.936       .  S
Fe47         O65   2.072       .  S
Fe47         O52   2.139       .  S
Fe47         O48   2.079       .  S
Fe47       O2107   2.118       .  S
Fe47         O56   1.951       .  S
O48          C55   1.274       .  A
O49          C63   1.265       .  A
O50          C55   1.277       .  A
O51        C2102   1.259       .  A
O52          C64   1.288       .  A
O53          C66   1.270       .  A
C54          O59   1.281       .  A
C54        O2099   1.267   1_554  A
C54        C1854   1.464       .  S
C55        C1868   1.496       .  S
O57          C60   1.269       .  A
O58          C60   1.267       .  A
O59       Fe2095   2.085   1_554  S
C60        C1840   1.462       .  S
O61          C66   1.274       .  A
O62          C64   1.272       .  A
C63          O65   1.270       .  A
C63        C1812   1.482       .  S
C64        C1826   1.495       .  S
C66        C1882   1.492       .  S
Fe67         O83   2.064       .  S
Fe67         O73   2.027       .  S
Fe67         O80   2.091       .  S
Fe67         O72   2.085       .  S
Fe67         O78   1.976       .  S
Fe68         O71   2.041       .  S
Fe68         O75   2.084       .  S
Fe68         O79   2.015       .  S
Fe68         O84   2.066       .  S
Fe68         O78   1.949       .  S
Fe69         O87   2.072       .  S
Fe69         O74   2.109       .  S
Fe69         O70   2.088       .  S
Fe69       O2129   2.090       .  S
Fe69         O78   1.951       .  S
O70          C77   1.273       .  A
O71          C85   1.262       .  A
O72          C77   1.282       .  A
O73        C2124   1.261   1_554  A
O74          C86   1.283       .  A
O75          C88   1.275       .  A
C76          O81   1.275       .  A
C76        O2121   1.262       .  A
C76        C1784   1.464       .  S
C77        C1871   1.499       .  S
O79          C82   1.253       .  A
O80          C82   1.264       .  A
O81       Fe2117   2.080       .  S
C82        C1770   1.490       .  S
O83          C88   1.274       .  A
O84          C86   1.273       .  A
C85          O87   1.268       .  A
C85        C1742   1.465       .  S
C86        C1759   1.486       .  S
C88        C1801   1.476       .  S
Fe89        O105   2.044       .  S
Fe89         O95   2.094       .  S
Fe89        O102   2.052       .  S
Fe89         O94   2.013       .  S
Fe89        O100   1.911       .  S
Fe90         O93   2.045       .  S
Fe90         O97   2.052       .  S
Fe90        O101   2.080       .  S
Fe90        O106   2.056       .  S
Fe90        O100   1.922       .  S
Fe91        O109   2.153       .  S
Fe91         O96   2.085       .  S
Fe91        O103   2.087       .  S
Fe91         O92   2.146       .  S
Fe91        O100   1.969       .  S
O92          C99   1.273       .  A
O93         C107   1.269       .  A
O94          C99   1.245       .  A
O95          C98   1.275       .  A
O96         C108   1.276       .  A
O97         C110   1.270       .  A
C98         O103   1.283       .  A
C98        C1714   1.504       .  S
C99        C1843   1.487       .  S
O101        C104   1.271       .  A
O102        C104   1.265       .  A
C104       C1728   1.469       .  S
O105        C110   1.269       .  A
O106        C108   1.269       .  A
C107        O109   1.289       .  A
C107       C1686   1.499       .  S
C108       C1703   1.479       .  S
C110       C1857   1.461       .  S
Fe111       O127   2.067       .  S
Fe111       O117   2.055       .  S
Fe111       O124   2.059       .  S
Fe111       O116   2.050       .  S
Fe111       O122   1.946       .  S
Fe112       O115   2.073       .  S
Fe112       O119   2.020       .  S
Fe112       O123   2.092       .  S
Fe112       O128   2.045       .  S
Fe112       O122   1.936       .  S
Fe113       O131   2.105       .  S
Fe113       O118   2.078       .  S
Fe113       O125   2.099       .  S
Fe113       O114   2.095       .  S
Fe113       O122   1.953       .  S
O114        C121   1.280       .  A
O115        C129   1.275       .  A
O116        C121   1.267       .  A
O117        C120   1.270       .  A
O118        C130   1.268       .  A
O119        C132   1.261       .  A
C120        O125   1.271       .  A
C120       C1717   1.490       .  S
C121       C1773   1.462       .  S
O123        C126   1.275       .  A
O124        C126   1.271       .  A
C126       C1672   1.491       .  S
O127        C132   1.269       .  A
O128        C130   1.263       .  A
C129        O131   1.284       .  A
C129       C1658   1.485       .  S
C130       C1644   1.463       .  S
C132       C1787   1.457       .  S
Fe133       O149   2.054       .  S
Fe133       O139   2.044       .  S
Fe133       O146   2.083       .  S
Fe133       O138   2.061       .  S
Fe133       O144   1.968       .  S
Fe134       O137   2.053       .  S
Fe134       O141   2.075       .  S
Fe134      O2193   2.038       .  S
Fe134      O2198   2.066       .  S
Fe134       O144   1.940       .  S
Fe135       O153   2.063       .  S
Fe135       O140   2.101       .  S
Fe135       O147   2.094       .  S
Fe135       O136   2.089       .  S
Fe135       O144   1.953       .  S
O136        C143   1.274       .  A
O137        C151   1.265       .  A
O138        C143   1.278       .  A
O139        C142   1.259       .  A
O140        C152   1.282       .  A
O141        C154   1.273   1_655  A
C142        O147   1.274       .  A
C142       C1591   1.460       .  S
C143       C1616   1.491       .  S
O145      Fe2182   2.039   1_554  S
O145        C148   1.264       .  A
O146       C2196   1.266       .  A
C148       O2194   1.268   1_554  A
C148       C1574   1.476   1_655  S
O149        C154   1.272   1_655  A
O150      Fe2182   2.057   1_554  S
O150       C2200   1.269       .  A
C151        O153   1.267       .  A
C151       C1602   1.471       .  S
C152       O2198   1.274       .  A
C152       C3608   1.483       .  S
C154       C1630   1.456       .  S
Fe155       O171   2.082       .  S
Fe155       O161   2.039       .  S
Fe155       O168   2.062       .  S
Fe155       O160   2.052       .  S
Fe155       O166   1.961       .  S
Fe156       O159   2.066       .  S
Fe156       O163   2.047       .  S
Fe156       O167   2.044       .  S
Fe156       O172   2.052       .  S
Fe156       O166   1.926       .  S
Fe157       O175   2.077       .  S
Fe157       O162   2.106       .  S
Fe157       O169   2.080       .  S
Fe157       O158   2.098       .  S
Fe157       O166   1.958       .  S
O158        C165   1.274       .  A
O159        C173   1.267       .  A
O160        C165   1.270       .  A
O161        C164   1.263       .  A
O162        C174   1.283       .  A
O163        C176   1.266       .  A
C164        O169   1.275       .  A
C164       C1546   1.451       .  S
C165       C1619   1.494       .  S
O167        C170   1.270       .  A
O168        C170   1.265       .  A
C170       C1535   1.469       .  S
O171        C176   1.274       .  A
O172        C174   1.269       .  A
C173        O175   1.269       .  A
C173       C2039   1.483       .  S
C174       C1518   1.483       .  S
C176       C1647   1.478   1_655  S
Fe177       O193   2.053       .  S
Fe177       O183   2.039       .  S
Fe177       O190   2.077       .  S
Fe177       O182   2.061       .  S
Fe177       O188   1.960       .  S
Fe178       O181   2.068       .  S
Fe178       O185   2.080       .  S
Fe178       O189   2.043       .  S
Fe178       O194   2.078       .  S
Fe178       O188   1.942       .  S
Fe179       O197   2.083       .  S
Fe179       O184   2.102       .  S
Fe179       O191   2.095       .  S
Fe179       O180   2.100       .  S
Fe179       O188   1.959       .  S
O180        C187   1.275       .  A
O181        C195   1.267       .  A
O182        C187   1.274       .  A
O183        C186   1.264       .  A
O184        C196   1.284       .  A
O185        C198   1.274       .  A
C186        O191   1.279       .  A
C186       C1493   1.463       .  S
C187       C1507   1.503       .  S
O189        C192   1.267       .  A
O190        C192   1.269       .  A
C192       C1479   1.479       .  S
O193        C198   1.270       .  A
O194        C196   1.276       .  A
C195        O197   1.270       .  A
C195       C1955   1.490       .  S
C196       C1462   1.488       .  S
C198       C1700   1.481       .  S
Fe199       O215   2.060       .  S
Fe199       O205   2.042       .  S
Fe199       O212   2.085       .  S
Fe199       O204   2.062       .  S
Fe199       O210   1.952       .  S
Fe200       O203   2.042       .  S
Fe200       O207   2.061       .  S
Fe200      O2259   2.043   1_554  S
Fe200      O2264   2.063   1_554  S
Fe200       O210   1.949       .  S
Fe201       O219   2.088       .  S
Fe201       O206   2.094       .  S
Fe201       O213   2.076       .  S
Fe201       O202   2.107       .  S
Fe201       O210   1.961       .  S
O202        C209   1.280       .  A
O203        C217   1.264       .  A
O204        C209   1.277       .  A
O205        C208   1.264       .  A
O206        C218   1.277   1_554  A
O207        C220   1.267       .  A
C208        O213   1.270       .  A
C208       C1420   1.459       .  S
C209       C1504   1.500       .  S
O211      Fe2248   2.042       .  S
O211        C214   1.267       .  A
O212       C2262   1.271   1_554  A
C214       O2260   1.269       .  A
C214       C1406   1.479       .  S
O215        C220   1.269       .  A
O216      Fe2248   2.060       .  S
O216       C2266   1.270       .  A
C217        O219   1.275       .  A
C217       C1437   1.478       .  S
C218       O2264   1.270       .  A
C218       C3443   1.482       .  S
C220       C1448   1.465       .  S
Fe221       O237   2.083       .  S
Fe221       O227   2.063       .  S
Fe221       O234   2.065       .  S
Fe221       O226   2.031       .  S
Fe221       O232   1.959       .  S
Fe222       O225   2.065       .  S
Fe222       O229   2.040       .  S
Fe222       O233   2.067       .  S
Fe222       O238   2.053       .  S
Fe222       O232   1.941       .  S
Fe223       O241   2.110       .  S
Fe223       O228   2.092       .  S
Fe223       O235   2.113       .  S
Fe223      O2272   2.092       .  S
Fe223       O232   1.958       .  S
O224      Fe2271   2.082       .  S
O224        C231   1.274   1_556  A
O225        C239   1.271       .  A
O226       C2279   1.262       .  A
O227        C230   1.277       .  A
O228        C240   1.274       .  A
O229        C242   1.266       .  A
C230        O235   1.280       .  A
C230       C1378   1.503       .  S
C231       O2274   1.263   1_554  A
C231       C1350   1.463       .  S
O233        C236   1.269       .  A
O234        C236   1.270       .  A
C236       C1605   1.468       .  S
O237        C242   1.269       .  A
O238        C240   1.266       .  A
C239        O241   1.283       .  A
C239       C1339   1.490       .  S
C240       C1322   1.479       .  S
C242       C1367   1.478       .  S
Fe243       O259   2.085       .  S
Fe243       O249   2.062       .  S
Fe243       O256   2.048       .  S
Fe243       O248   2.049       .  S
Fe243       O254   1.951       .  S
Fe244       O247   2.079       .  S
Fe244       O251   2.036       .  S
Fe244       O255   2.088       .  S
Fe244       O260   2.053       .  S
Fe244       O254   1.930       .  S
Fe245       O263   2.091       .  S
Fe245       O250   2.097       .  S
Fe245       O257   2.117       .  S
Fe245      O2294   2.085       .  S
Fe245       O254   1.954       .  S
O246      Fe2293   2.091       .  S
O246        C253   1.278       .  A
O247        C261   1.278       .  A
O248       C2301   1.266   1_554  A
O249        C252   1.274       .  A
O250        C262   1.272       .  A
O251        C264   1.262       .  A
C252        O257   1.278       .  A
C252       C1381   1.506       .  S
C253       O2296   1.264       .  A
C253       C1280   1.461       .  S
O255        C258   1.275       .  A
O256        C258   1.270       .  A
C258       C1434   1.477       .  S
O259        C264   1.270       .  A
O260        C262   1.263       .  A
C261        O263   1.282       .  A
C261       C1308   1.482       .  S
C262       C1269   1.481       .  S
C264       C1294   1.482       .  S
Fe265       O281   2.062       .  S
Fe265       O271   2.048       .  S
Fe265       O278   2.076       .  S
Fe265       O270   2.058       .  S
Fe265       O276   1.960       .  S
Fe266       O269   2.064       .  S
Fe266       O273   2.082       .  S
Fe266      O2325   2.039       .  S
Fe266      O2330   2.063       .  S
Fe266       O276   1.939       .  S
Fe267       O285   2.076       .  S
Fe267       O272   2.115       .  S
Fe267       O279   2.095       .  S
Fe267       O268   2.107       .  S
Fe267       O276   1.956       .  S
O268        C275   1.274       .  A
O269        C283   1.269       .  A
O270        C275   1.273       .  A
O271        C274   1.264       .  A
O272        C284   1.285       .  A
O273        C286   1.274       .  A
C274        O279   1.277       .  A
C274       C1255   1.462       .  S
C275       C1224   1.496       .  S
O277      Fe2314   2.044   1_554  S
O277        C280   1.265       .  A
O278       C2328   1.268       .  A
C280       O2326   1.273   1_554  A
C280       C1238   1.489       .  S
O281        C286   1.273       .  A
O282      Fe2314   2.092   1_554  S
O282       C2332   1.284       .  A
C283        O285   1.271       .  A
C283       C1210   1.493       .  S
C284       O2330   1.271       .  A
C284       C3247   1.488       .  S
C286       C1325   1.484   1_455  S
Fe287       O303   2.049       .  S
Fe287       O293   2.028       .  S
Fe287       O300   2.062       .  S
Fe287       O292   2.064       .  S
Fe287       O298   1.926       .  S
Fe288       O291   2.084       .  S
Fe288       O295   2.050       .  S
Fe288       O299   2.058       .  S
Fe288       O304   2.033       .  S
Fe288       O298   1.934       .  S
Fe289       O307   2.076       .  S
Fe289       O294   2.146       .  S
Fe289       O301   2.102       .  S
Fe289       O290   2.096       .  S
Fe289       O298   1.960       .  S
O290        C297   1.284       .  A
O291        C305   1.271       .  A
O292        C297   1.273       .  A
O293        C296   1.261       .  A
O294        C306   1.285       .  A
O295        C308   1.267       .  A
C296        O301   1.272       .  A
C296       C1182   1.458       .  S
C297       C1227   1.500       .  S
O299        C302   1.268       .  A
O300        C302   1.269       .  A
C302       C1168   1.464   1_455  S
O303        C308   1.267       .  A
O304        C306   1.262       .  A
C305        O307   1.272       .  A
C305       C1675   1.482       .  S
C306       C1756   1.500       .  S
C308       C1969   1.451   1_455  S
Fe309       O325   2.050       .  S
Fe309       O315   2.061       .  S
Fe309       O322   2.069       .  S
Fe309       O314   2.029       .  S
Fe309       O320   1.963       .  S
Fe310       O313   2.079       .  S
Fe310       O317   2.037       .  S
Fe310       O321   2.073       .  S
Fe310       O326   2.033       .  S
Fe310       O320   1.954       .  S
Fe311       O329   2.110       .  S
Fe311       O316   2.069       .  S
Fe311       O323   2.091       .  S
Fe311      O2360   2.091       .  S
Fe311       O320   1.979       .  S
O312      Fe2359   2.104       .  S
O312        C319   1.280       .  A
O313        C327   1.278       .  A
O314       C2367   1.264       .  A
O315        C318   1.270       .  A
O316        C328   1.263       .  A
O317        C330   1.266       .  A
C318        O323   1.270       .  A
C318       C1112   1.497       .  S
C319       O2362   1.259       .  A
C319       C1143   1.477   1_556  S
O321        C324   1.270       .  A
O322        C324   1.272       .  A
C324       C1213   1.481       .  S
O325        C330   1.265       .  A
O326        C328   1.258       .  A
C327        O329   1.286       .  A
C327       C1126   1.492       .  S
C328       C1633   1.487       .  S
C330       C1154   1.466       .  S
Fe331       O347   2.091       .  S
Fe331       O337   2.090       .  S
Fe331       O344   2.076       .  S
Fe331       O336   2.035       .  S
Fe331       O342   1.980       .  S
Fe332       O335   2.049       .  S
Fe332       O339   2.017       .  S
Fe332       O343   2.084       .  S
Fe332       O348   2.045       .  S
Fe332       O342   1.946       .  S
Fe333       O351   2.121       .  S
Fe333       O338   2.064       .  S
Fe333       O345   2.079       .  S
Fe333      O2382   2.092       .  S
Fe333       O342   1.950       .  S
O334      Fe2381   2.086       .  S
O334        C341   1.275       .  A
O335        C349   1.267       .  A
O336       C2389   1.263   1_554  A
O337        C340   1.282       .  A
O338        C350   1.269       .  A
O339        C352   1.253       .  A
C340        O345   1.271       .  A
C340       C1115   1.507       .  S
C341       O2384   1.264       .  A
C341       C1070   1.457       .  S
O343        C346   1.273       .  A
O344        C346   1.274       .  A
C346       C1101   1.489       .  S
O347        C352   1.268       .  A
O348        C350   1.266       .  A
C349        O351   1.283       .  A
C349       C1056   1.488       .  S
C350       C1451   1.467       .  S
C352       C1084   1.482       .  S
Fe353       O369   2.052       .  S
Fe353       O359   2.100       .  S
Fe353       O366   2.036   1_455  S
Fe353       O358   2.016       .  S
Fe353       O364   1.912       .  S
Fe354       O365   2.100       .  S
Fe354       O370   2.064       .  S
Fe354      O2405   2.047   1_554  S
Fe354      O2409   2.067   1_554  S
Fe354       O364   1.927       .  S
Fe355       O373   2.148       .  S
Fe355       O360   2.071       .  S
Fe355       O367   2.083       .  S
Fe355       O356   2.140       .  S
Fe355       O364   1.974       .  S
O356        C363   1.273       .  A
O357      Fe2402   2.044       .  S
O357       C2419   1.271       .  A
O358        C363   1.245       .  A
O359        C362   1.274       .  A
O360        C372   1.271       .  A
O361      Fe2402   2.055       .  S
O361        C374   1.269       .  A
C362        O367   1.280       .  A
C362       C1028   1.512       .  S
C363       C1532   1.477       .  S
O365        C368   1.272       .  A
O366        C368   1.261   1_655  A
C368       C1042   1.480   1_455  S
O369       C2422   1.277   1_554  A
O370        C372   1.270       .  A
C371        O373   1.290   1_556  A
C371       O2405   1.272       .  A
C371       C3709   1.497       .  S
C372       C1798   1.481       .  S
C374       O2417   1.275       .  A
C374       C1549   1.482   1_455  S
Fe375       O391   2.091       .  S
Fe375       O381   2.063       .  S
Fe375       O388   2.061       .  S
Fe375       O380   2.043       .  S
Fe375       O386   1.959       .  S
Fe376       O379   2.059       .  S
Fe376       O383   2.036       .  S
Fe376       O387   2.074       .  S
Fe376       O392   2.053       .  S
Fe376       O386   1.941       .  S
Fe377       O395   2.110       .  S
Fe377       O382   2.094       .  S
Fe377       O389   2.110       .  S
Fe377       O378   2.087       .  S
Fe377       O386   1.957       .  S
O378        C385   1.276       .  A
O379        C393   1.269       .  A
O380        C385   1.264       .  A
O381        C384   1.277       .  A
O382        C394   1.273       .  A
O383        C396   1.263       .  A
C384        O389   1.277       .  A
C384       C1031   1.502       .  S
C385       C1577   1.458       .  S
O387        C390   1.269       .  A
O388        C390   1.269       .  A
C390       C1017   1.464   1_455  S
O391        C396   1.272       .  A
O392        C394   1.268       .  A
C393        O395   1.282       .  A
C393       C1129   1.486       .  S
C394       C1000   1.496       .  S
C396       C1588   1.487   1_455  S
Fe397       O413   2.063       .  S
Fe397       O403   2.072       .  S
Fe397       O410   2.060       .  S
Fe397       O402   2.032       .  S
Fe397       O408   1.926       .  S
Fe398       O409   2.060       .  S
Fe398       O414   2.071       .  S
Fe398      O2449   2.048   1_554  S
Fe398      O2453   2.061   1_554  S
Fe398       O408   1.937       .  S
Fe399       O417   2.143       .  S
Fe399       O404   2.067       .  S
Fe399       O411   2.081       .  S
Fe399       O400   2.116       .  S
Fe399       O408   1.960       .  S
O400        C407   1.273       .  A
O401      Fe2446   2.044       .  S
O401       C2463   1.267       .  A
O402        C407   1.260       .  A
O403        C406   1.274       .  A
O404        C416   1.270       .  A
O405      Fe2446   2.057       .  S
O405        C418   1.268       .  A
C406        O411   1.280       .  A
C406        C989   1.501       .  S
C407       C1171   1.472       .  S
O409        C412   1.269       .  A
O410        C412   1.269       .  A
C412       C1745   1.461   1_655  S
O413       C2466   1.270   1_554  A
O414        C416   1.270       .  A
C415        O417   1.286   1_556  A
C415       O2449   1.268       .  A
C415       C4031   1.502       .  S
C416        C972   1.472       .  S
C418       O2461   1.270       .  A
C418       C1185   1.472   1_655  S
Fe419       O435   2.084       .  S
Fe419       O425   2.060       .  S
Fe419       O432   2.062       .  S
Fe419       O424   2.050       .  S
Fe419       O430   1.968       .  S
Fe420       O423   2.067       .  S
Fe420       O427   2.031       .  S
Fe420       O431   2.083       .  S
Fe420       O436   2.051       .  S
Fe420       O430   1.936       .  S
Fe421       O439   2.114       .  S
Fe421       O426   2.066       .  S
Fe421       O433   2.104       .  S
Fe421       O422   2.092       .  S
Fe421       O430   1.953       .  S
O422        C429   1.274       .  A
O423        C437   1.273       .  A
O424        C429   1.260       .  A
O425        C428   1.277       .  A
O426        C438   1.268       .  A
O427        C440   1.258       .  A
C428        O433   1.277       .  A
C428        C986   1.493       .  S
C429       C1241   1.464       .  S
O431        C434   1.277   1_655  A
O432        C434   1.274   1_655  A
C434        C961   1.483       .  S
O435        C440   1.265       .  A
O436        C438   1.265       .  A
C437        O439   1.285       .  A
C437       C1336   1.491       .  S
C438        C944   1.462       .  S
C440       C1252   1.486   1_655  S
Fe441       O457   2.055       .  S
Fe441       O447   2.044       .  S
Fe441       O454   2.076       .  S
Fe441       O446   2.048       .  S
Fe441       O452   1.962       .  S
Fe442       O445   2.045       .  S
Fe442       O449   2.087       .  S
Fe442       O453   2.025       .  S
Fe442       O458   2.079       .  S
Fe442       O452   1.934       .  S
Fe443       O461   2.098       .  S
Fe443       O448   2.099       .  S
Fe443       O444   2.122       .  S
Fe443      O2503   2.080       .  S
Fe443       O452   1.953       .  S
O444        C451   1.280       .  A
O445        C459   1.262       .  A
O446        C451   1.272       .  A
O447       C2498   1.263   1_554  A
O448        C460   1.280       .  A
O449        C462   1.277       .  A
C450        O455   1.272       .  A
C450       O2495   1.266       .  A
C450       C2011   1.455       .  S
C451        C933   1.494       .  S
O453        C456   1.256       .  A
O454        C456   1.261       .  A
O455      Fe2491   2.065       .  S
C456       C1994   1.473       .  S
O457        C462   1.273       .  A
O458        C460   1.275       .  A
C459        O461   1.275       .  A
C459       C1045   1.472       .  S
C460       C1521   1.488       .  S
C462        C975   1.485       .  S
Fe463       O479   2.065       .  S
Fe463       O469   2.044       .  S
Fe463       O476   2.077       .  S
Fe463       O468   2.063       .  S
Fe463       O474   1.968       .  S
Fe464       O467   2.042       .  S
Fe464       O471   2.085       .  S
Fe464       O475   2.029       .  S
Fe464       O480   2.063       .  S
Fe464       O474   1.940       .  S
Fe465       O483   2.067       .  S
Fe465       O470   2.111       .  S
Fe465       O466   2.102       .  S
Fe465      O2525   2.096       .  S
Fe465       O474   1.951       .  S
O466        C473   1.277       .  A
O467        C481   1.263       .  A
O468        C473   1.278       .  A
O469       C2520   1.259       .  A
O470        C482   1.283       .  A
O471        C484   1.276       .  A
C472        O477   1.274   1_554  A
C472       O2517   1.267   1_554  A
C472       C1927   1.454       .  S
C473        C930   1.490       .  S
O475        C478   1.258       .  A
O476        C478   1.264       .  A
O477      Fe2513   2.073       .  S
C478       C1910   1.476       .  S
O479        C484   1.274       .  A
O480        C482   1.272       .  A
C481        O483   1.268       .  A
C481        C902   1.460       .  S
C482       C1465   1.489       .  S
C484        C916   1.481       .  S
Fe485       O501   2.065       .  S
Fe485       O491   2.035       .  S
Fe485       O498   2.076       .  S
Fe485       O490   2.061       .  S
Fe485       O496   1.965       .  S
Fe486       O489   2.042       .  S
Fe486       O493   2.078       .  S
Fe486       O497   2.027       .  S
Fe486       O502   2.063       .  S
Fe486       O496   1.941       .  S
Fe487       O505   2.097       .  S
Fe487       O492   2.109       .  S
Fe487       O499   2.080       .  S
Fe487       O488   2.120       .  S
Fe487       O496   1.955       .  S
O488        C495   1.281       .  A
O489        C503   1.263       .  A
O490        C495   1.278       .  A
O491        C494   1.261       .  A
O492        C504   1.282       .  A
O493        C506   1.275       .  A
C494        O499   1.272       .  A
C494        C888   1.456       .  S
C495        C860   1.503       .  S
O497        C500   1.259       .  A
O498        C500   1.263       .  A
C500        C874   1.472       .  S
O501        C506   1.274       .  A
O502        C504   1.271       .  A
C503        O505   1.275       .  A
C503       C1731   1.473       .  S
C504       C1829   1.491       .  S
C506       C1896   1.485       .  S
Fe507       O523   2.075       .  S
Fe507       O513   2.057       .  S
Fe507       O520   2.076       .  S
Fe507       O512   2.055       .  S
Fe507       O518   1.953       .  S
Fe508       O511   2.056       .  S
Fe508       O515   2.065       .  S
Fe508      O2567   2.043   1_554  S
Fe508      O2572   2.071   1_554  S
Fe508       O518   1.932       .  S
Fe509       O527   2.098       .  S
Fe509       O514   2.100       .  S
Fe509       O521   2.074       .  S
Fe509       O510   2.114       .  S
Fe509       O518   1.962       .  S
O510        C517   1.275       .  A
O511        C525   1.265       .  A
O512        C517   1.270       .  A
O513        C516   1.267       .  A
O514        C526   1.283   1_554  A
O515        C528   1.270       .  A
C516        O521   1.276       .  A
C516        C846   1.450       .  S
C517        C863   1.503       .  S
O519      Fe2556   2.036       .  S
O519        C522   1.267       .  A
O520       C2570   1.270   1_554  A
C522       O2568   1.262       .  A
C522        C832   1.454       .  S
O523        C528   1.273       .  A
O524      Fe2556   2.073       .  S
O524       C2574   1.277       .  A
C525        O527   1.273       .  A
C525       C1098   1.492       .  S
C526       O2572   1.274       .  A
C526       C2866   1.482       .  S
C528       C1266   1.491       .  S
Fe529       O545   2.063       .  S
Fe529       O535   2.047       .  S
Fe529       O542   2.079       .  S
Fe529       O534   2.068       .  S
Fe529       O540   1.976       .  S
Fe530       O533   2.049       .  S
Fe530       O537   2.080       .  S
Fe530       O541   2.025       .  S
Fe530       O546   2.065       .  S
Fe530       O540   1.939       .  S
Fe531       O549   2.077       .  S
Fe531       O536   2.121       .  S
Fe531       O543   2.094       .  S
Fe531       O532   2.104       .  S
Fe531       O540   1.951       .  S
O532        C539   1.278       .  A
O533        C547   1.263       .  A
O534        C539   1.276       .  A
O535        C538   1.261       .  A
O536        C548   1.286       .  A
O537        C550   1.275       .  A
C538        O543   1.273       .  A
C538       C1087   1.461       .  S
C539        C790   1.491       .  S
O541        C544   1.256       .  A
O542        C544   1.263       .  A
C544       C1073   1.481       .  S
O545        C550   1.274       .  A
O546        C548   1.273       .  A
C547        O549   1.270       .  A
C547        C779   1.476       .  S
C548        C821   1.492       .  S
C550        C804   1.475       .  S
Fe551       O567   2.086       .  S
Fe551       O557   2.042       .  S
Fe551       O564   2.062       .  S
Fe551       O556   2.080       .  S
Fe551       O562   1.961       .  S
Fe552       O555   2.045       .  S
Fe552       O559   2.053       .  S
Fe552       O563   2.039       .  S
Fe552       O568   2.082       .  S
Fe552       O562   1.941       .  S
Fe553       O571   2.062       .  S
Fe553       O558   2.097       .  S
Fe553       O565   2.088       .  S
Fe553       O554   2.049       .  S
Fe553       O562   1.965       .  S
O554        C561   1.259       .  A
O555        C569   1.255       .  A
O556        C561   1.268       .  A
O557        C560   1.275       .  A
O558        C570   1.286       .  A
O559        C572   1.266       .  A
C560        O565   1.286       .  A
C560       C1157   1.457       .  S
C561        C793   1.496       .  S
O563        C566   1.267       .  A
O564        C566   1.273       .  A
C566       C1140   1.472       .  S
O567        C572   1.271       .  A
O568        C570   1.280       .  A
C569        O571   1.258       .  A
C569        C958   1.473       .  S
C570       C1196   1.480       .  S
C572       C1003   1.478       .  S
Fe573       O589   2.068       .  S
Fe573       O579   2.064       .  S
Fe573       O586   2.065       .  S
Fe573       O578   2.043       .  S
Fe573       O584   1.960       .  S
Fe574       O585   2.074       .  S
Fe574       O590   2.051       .  S
Fe574      O2625   2.091       .  S
Fe574      O2629   2.042       .  S
Fe574       O584   1.946       .  S
Fe575       O593   2.103       .  S
Fe575       O580   2.077       .  S
Fe575       O587   2.093       .  S
Fe575       O576   2.080       .  S
Fe575       O584   1.975       .  S
O576        C583   1.278       .  A
O577      Fe2622   2.064   1_554  S
O577        C591   1.273       .  A
O578        C583   1.270       .  A
O579        C582   1.270       .  A
O580        C592   1.266       .  A
O581      Fe2622   2.038   1_554  S
O581        C594   1.264       .  A
C582        O587   1.270       .  A
C582        C762   1.513       .  S
C583        C877   1.453       .  S
O585        C588   1.269       .  A
O586        C588   1.270       .  A
C588       C1815   1.477       .  S
O589       C2642   1.271       .  A
O590        C592   1.261       .  A
C591       O2641   1.287   1_554  A
C591       C1938   1.487       .  S
C592        C919   1.482       .  S
O593       C2639   1.285       .  A
C594       O2637   1.265   1_554  A
C594        C891   1.473       .  S
Fe595       O611   2.063       .  S
Fe595       O601   2.101       .  S
Fe595       O608   2.047       .  S
Fe595       O600   2.017       .  S
Fe595       O606   1.920       .  S
Fe596       O599   2.049       .  S
Fe596       O603   2.043       .  S
Fe596       O607   2.086       .  S
Fe596       O612   2.055       .  S
Fe596       O606   1.922       .  S
Fe597       O615   2.129       .  S
Fe597       O602   2.073       .  S
Fe597       O609   2.086       .  S
Fe597       O598   2.108       .  S
Fe597       O606   1.969       .  S
O598        C605   1.268       .  A
O599        C613   1.269       .  A
O600        C605   1.249       .  A
O601        C604   1.279       .  A
O602        C614   1.272       .  A
O603        C616   1.268       .  A
C604        O609   1.282       .  A
C604        C765   1.517       .  S
C605        C835   1.466       .  S
O607        C610   1.271       .  A
O608        C610   1.263       .  A
C610        C776   1.467       .  S
O611        C616   1.277       .  A
O612        C614   1.266       .  A
C613        O615   1.284       .  A
C613       C1311   1.486       .  S
C614        C751   1.467       .  S
C616        C849   1.484       .  S
Fe617       O633   2.059       .  S
Fe617       O623   2.036       .  S
Fe617       O630   2.081       .  S
Fe617       O622   2.064       .  S
Fe617       O628   1.960       .  S
Fe618       O621   2.046       .  S
Fe618       O625   2.074       .  S
Fe618       O629   2.035       .  S
Fe618       O634   2.066       .  S
Fe618       O628   1.947       .  S
Fe619       O637   2.075       .  S
Fe619       O624   2.106       .  S
Fe619       O631   2.090       .  S
Fe619       O620   2.093       .  S
Fe619       O628   1.961       .  S
O620        C627   1.275       .  A
O621        C635   1.265       .  A
O622        C627   1.277       .  A
O623        C626   1.263       .  A
O624        C636   1.282       .  A
O625        C638   1.272       .  A
C626        O631   1.275       .  A
C626       C1364   1.460       .  S
C627        C734   1.497       .  S
O629        C632   1.263       .  A
O630        C632   1.269       .  A
C632       C1353   1.476       .  S
O633        C638   1.270       .  A
O634        C636   1.272       .  A
C635        O637   1.270       .  A
C635       C1014   1.478       .  S
C636       C1563   1.488       .  S
C638        C947   1.481       .  S
Fe639       O655   2.050       .  S
Fe639       O645   2.054       .  S
Fe639       O652   2.078       .  S
Fe639       O644   2.059       .  S
Fe639       O650   1.959       .  S
Fe640       O643   2.056       .  S
Fe640       O647   2.075       .  S
Fe640       O651   2.038       .  S
Fe640       O656   2.079       .  S
Fe640       O650   1.939       .  S
Fe641       O659   2.086       .  S
Fe641       O646   2.105       .  S
Fe641       O653   2.091       .  S
Fe641       O642   2.106       .  S
Fe641       O650   1.953       .  S
O642        C649   1.276       .  A
O643        C657   1.264       .  A
O644        C649   1.272       .  A
O645        C648   1.265       .  A
O646        C658   1.284       .  A
O647        C660   1.272       .  A
C648        O653   1.277       .  A
C648       C1297   1.462       .  S
C649        C737   1.504       .  S
O651        C654   1.265       .  A
O652        C654   1.269       .  A
C654       C1283   1.479       .  S
O655        C660   1.269       .  A
O656        C658   1.276       .  A
C657        O659   1.271       .  A
C657        C720   1.487       .  S
C658       C1392   1.489       .  S
C660        C748   1.462       .  S
Fe661       O677   2.064       .  S
Fe661       O667   2.057       .  S
Fe661       O674   2.059       .  S
Fe661       O666   2.025       .  S
Fe661       O672   1.962       .  S
Fe662       O673   2.057       .  S
Fe662       O678   2.056       .  S
Fe662      O2713   2.072       .  S
Fe662      O2717   2.048       .  S
Fe662       O672   1.954       .  S
Fe663       O681   2.117       .  S
Fe663       O668   2.075       .  S
Fe663       O675   2.093       .  S
Fe663       O664   2.100       .  S
Fe663       O672   1.974       .  S
O664        C671   1.278       .  A
O665      Fe2710   2.066   1_554  S
O665       C2727   1.273       .  A
O666        C671   1.263       .  A
O667        C670   1.272       .  A
O668        C680   1.268       .  A
O669      Fe2710   2.040   1_554  S
O669        C682   1.265       .  A
C670        O675   1.274       .  A
C670        C709   1.509       .  S
C671       C1476   1.462       .  S
O673        C676   1.267       .  A
O674        C676   1.269       .  A
C676        C905   1.474       .  S
O677       C2730   1.268       .  A
O678        C680   1.264       .  A
C679        O681   1.285       .  A
C679       O2713   1.273       .  A
C679       C3737   1.496       .  S
C680       C1885   1.474       .  S
C682       O2725   1.269   1_554  A
C682       C1490   1.477       .  S
Fe683       O699   2.073       .  S
Fe683       O689   2.069       .  S
Fe683       O696   2.064       .  S
Fe683       O688   2.031       .  S
Fe683       O694   1.969       .  S
Fe684       O687   2.069       .  S
Fe684       O691   2.035       .  S
Fe684       O695   2.073       .  S
Fe684       O700   2.051       .  S
Fe684       O694   1.943       .  S
Fe685       O703   2.117       .  S
Fe685       O690   2.074       .  S
Fe685       O697   2.086       .  S
Fe685       O686   2.103       .  S
Fe685       O694   1.963       .  S
O686        C693   1.280       .  A
O687        C701   1.274       .  A
O688        C693   1.262       .  A
O689        C692   1.276       .  A
O690        C702   1.267       .  A
O691        C704   1.264       .  A
C692        O697   1.272       .  A
C692        C706   1.503       .  S
C693       C1409   1.462       .  S
O695        C698   1.271       .  A
O696        C698   1.273       .  A
C698        C723   1.481       .  S
O699        C704   1.268       .  A
O700        C702   1.264       .  A
C701        O703   1.286       .  A
C701       C1059   1.495       .  S
C702        C807   1.486       .  S
C704       C1423   1.472       .  S
C705        C706   1.407       .  A
C705        C710   1.416       .  A
C705        H712   1.083       .  S
C706        C707   1.416       .  A
C707        C708   1.414       .  A
C707        N714   1.438       .  S
C708        C709   1.409       .  A
C708        H713   1.083       .  S
C709        C710   1.421       .  A
C710        N711   1.438       .  S
N711        H715   1.046       .  S
N711        H716   1.044       .  S
N714        H717   1.046       .  S
N714        H718   1.046       .  S
C719        C720   1.408       .  A
C719        C724   1.411       .  A
C719        H726   1.084       .  S
C720        C721   1.411       .  A
C721        C722   1.399       .  A
C721        N728   1.432       .  S
C722        C723   1.401       .  A
C722        H727   1.084       .  S
C723        C724   1.413       .  A
C724        N725   1.437       .  S
N725        H729   1.045       .  S
N725        H730   1.046       .  S
N728        H731   1.045       .  S
N728        H732   1.046       .  S
C733        C734   1.406       .  A
C733        C738   1.406       .  A
C733        H740   1.084       .  S
C734        C735   1.412       .  A
C735        C736   1.412       .  A
C735        N742   1.432       .  S
C736        C737   1.410       .  A
C736        H741   1.084       .  S
C737        C738   1.423       .  A
C738        N739   1.432       .  S
N739        H743   1.044       .  S
N739        H744   1.045       .  S
N742        H745   1.046       .  S
N742        H746   1.046       .  S
C747        C748   1.402       .  A
C747        C752   1.400       .  A
C747        H754   1.085       .  S
C748        C749   1.405       .  A
C749        C750   1.395       .  A
C749        N756   1.433       .  S
C750        C751   1.407       .  A
C750        H755   1.085       .  S
C751        C752   1.416       .  A
C752        N753   1.439       .  S
N753        H757   1.045       .  S
N753        H758   1.042       .  S
N756        H759   1.046       .  S
N756        H760   1.045       .  S
C761        C762   1.414       .  A
C761        C766   1.414   1_565  A
C761        H768   1.083       .  S
C762        C763   1.413       .  A
C763        C764   1.410   1_565  A
C763        N770   1.432       .  S
C764        C765   1.415       .  A
C764        H769   1.083       .  S
C765        C766   1.420       .  A
C766        N767   1.431       .  S
N767        H771   1.045       .  S
N767        H772   1.046       .  S
N770        H773   1.046       .  S
N770        H774   1.046   1_565  S
C775        C776   1.402       .  A
C775        C780   1.399       .  A
C775        H782   1.084       .  S
C776        C777   1.408       .  A
C777        C778   1.406       .  A
C777        N784   1.435       .  S
C778        C779   1.403       .  A
C778        H783   1.084       .  S
C779        C780   1.414       .  A
C780        N781   1.433       .  S
N781        H785   1.046       .  S
N781        H786   1.045       .  S
N784        H787   1.045       .  S
N784        H788   1.046       .  S
C789        C790   1.412       .  A
C789        C794   1.405       .  A
C789        H796   1.081       .  S
C790        C791   1.411       .  A
C791        C792   1.408       .  A
C791        N798   1.438       .  S
C792        C793   1.416       .  A
C792        H797   1.084       .  S
C793        C794   1.408       .  A
C794        N795   1.432       .  S
N795        H799   1.045       .  S
N795        H800   1.045       .  S
N798        H801   1.043       .  S
N798        H802   1.046       .  S
C803        C804   1.402       .  A
C803        C808   1.404       .  A
C803        H810   1.084       .  S
C804        C805   1.412       .  A
C805        C806   1.400       .  A
C805        N812   1.433       .  S
C806        C807   1.408       .  A
C806        H811   1.084       .  S
C807        C808   1.415       .  A
C808        N809   1.438       .  S
N809        H813   1.046       .  S
N809        H814   1.046       .  S
N812        H815   1.046       .  S
N812        H816   1.045       .  S
C817        C818   1.404       .  A
C817        C822   1.414       .  A
C817        H824   1.084       .  S
C818       C2574   1.493       .  S
C818        C819   1.415       .  A
C819        C820   1.412       .  A
C819        N826   1.432       .  S
C820        C821   1.403       .  A
C820        H825   1.084       .  S
C821        C822   1.414       .  A
C822        N823   1.432       .  S
N823        H827   1.046       .  S
N823        H828   1.045       .  S
N826        H829   1.046       .  S
N826        H830   1.045       .  S
C831        C832   1.391       .  A
C831        C836   1.387       .  A
C831        H838   1.084       .  S
C832        C833   1.416       .  A
C833        C834   1.398       .  A
C833       N2888   1.432       .  S
C834        C835   1.398       .  A
C834        H839   1.084       .  S
C835        C836   1.418       .  A
C836        N837   1.434       .  S
N837        H841   1.046       .  S
N837        H842   1.046       .  S
N840       C2881   1.431       .  S
N840        H843   1.045   1_556  S
N840        H844   1.044   1_556  S
C845        C846   1.392       .  A
C845        C850   1.390       .  A
C845        H852   1.086       .  S
C846        C847   1.414       .  A
C847        C848   1.405       .  A
C847        N854   1.437       .  S
C848        C849   1.406       .  A
C848        H853   1.083       .  S
C849        C850   1.423       .  A
C850        N851   1.435       .  S
N851        H855   1.044       .  S
N851        H856   1.045       .  S
N854        H857   1.045       .  S
N854        H858   1.046       .  S
C859        C860   1.406       .  A
C859        C864   1.407   1_565  A
C859        H866   1.084       .  S
C860        C861   1.417       .  A
C861        C862   1.421   1_565  A
C861        N868   1.436       .  S
C862        C863   1.409       .  A
C862        H867   1.083       .  S
C863        C864   1.415       .  A
C864        N865   1.433       .  S
N865        H869   1.045       .  S
N865        H870   1.046       .  S
N868        H871   1.046       .  S
N868        H872   1.046       .  S
C873        C874   1.406       .  A
C873        C878   1.392       .  A
C873        H880   1.084       .  S
C874        C875   1.407       .  A
C875        C876   1.404       .  A
C875        N882   1.432       .  S
C876        C877   1.406       .  A
C876        H881   1.085       .  S
C877        C878   1.407       .  A
C878        N879   1.434       .  S
N879        H883   1.045       .  S
N879        H884   1.046       .  S
N882        H885   1.046       .  S
N882        H886   1.046       .  S
C887        C888   1.406       .  A
C887        C892   1.401       .  A
C887        H894   1.085       .  S
C888        C889   1.406       .  A
C889        C890   1.393       .  A
C889        N896   1.433       .  S
C890        C891   1.407       .  A
C890        H895   1.084       .  S
C891        C892   1.409       .  A
C892        N893   1.432       .  S
N893        H897   1.045       .  S
N893       H2946   1.046       .  S
N896        H899   1.045       .  S
N896        H900   1.045       .  S
H898       N2941   1.045       .  S
C901        C902   1.401       .  A
C901        C906   1.402       .  A
C901        H908   1.084       .  S
C902        C903   1.405       .  A
C903        C904   1.402       .  A
C903        N910   1.439       .  S
C904        C905   1.407       .  A
C904        H909   1.084       .  S
C905        C906   1.410       .  A
C906        N907   1.437       .  S
N907        H911   1.046       .  S
N907        H912   1.045       .  S
N910        H913   1.045       .  S
N910        H914   1.046       .  S
C915        C916   1.405       .  A
C915        C920   1.404       .  A
C915        H922   1.084       .  S
C916        C917   1.416       .  A
C917        C918   1.399       .  A
C917        N924   1.432       .  S
C918        C919   1.405       .  A
C918        H923   1.084       .  S
C919        C920   1.411       .  A
C920        N921   1.433       .  S
N921        H925   1.046       .  S
N921        H926   1.046       .  S
N924        H927   1.046       .  S
N924        H928   1.045       .  S
C929        C930   1.403       .  A
C929        C934   1.403       .  A
C929        H936   1.084       .  S
C930       C2979   1.417       .  A
C931        C932   1.412   1_556  A
C931       C2978   1.419       .  A
C931        N938   1.432       .  S
C932        C933   1.408       .  A
C932        H937   1.083       .  S
C933       C2982   1.415       .  A
C934       C2981   1.415       .  A
C934        N935   1.433       .  S
N935        H939   1.046       .  S
N935        H940   1.046       .  S
N938        H941   1.046       .  S
N938        H942   1.044       .  S
C943        C944   1.399       .  A
C943        C948   1.400       .  A
C943        H950   1.085       .  S
C944        C945   1.408       .  A
C945        C946   1.398       .  A
C945        N952   1.433       .  S
C946        C947   1.409       .  A
C946        H951   1.084       .  S
C947        C948   1.413       .  A
C948        N949   1.432       .  S
N949        H953   1.046       .  S
N949        H954   1.046       .  S
N952        H955   1.045       .  S
N952        H956   1.046       .  S
C957        C958   1.402       .  A
C957        C962   1.398       .  A
C957        H964   1.084       .  S
C958        C959   1.406       .  A
C959        C960   1.401       .  A
C959        N966   1.433       .  S
C960        C961   1.408       .  A
C960        H965   1.084       .  S
C961        C962   1.419       .  A
C962        N963   1.433       .  S
N963        H967   1.046       .  S
N963        H968   1.045       .  S
N966        H969   1.046       .  S
N966        H970   1.045       .  S
C971        C972   1.401       .  A
C971        C976   1.398       .  A
C971        H978   1.084       .  S
C972        C973   1.409       .  A
C973        C974   1.406       .  A
C973        N980   1.438       .  S
C974        C975   1.410       .  A
C974        H979   1.083       .  S
C975        C976   1.413       .  A
C976        N977   1.432       .  S
N977        H981   1.045   1_554  S
N977        H982   1.046       .  S
N980        H983   1.046       .  S
N980        H984   1.046       .  S
C985        C986   1.403       .  A
C985        C990   1.403   1_545  A
C985        H992   1.084       .  S
C986        C987   1.422       .  A
C987        C988   1.416   1_545  A
C987        N994   1.438       .  S
C988        C989   1.410       .  A
C988        H993   1.083       .  S
C989        C990   1.418       .  A
C990        N991   1.439       .  S
N991        H995   1.046       .  S
N991        H996   1.045       .  S
N994        H997   1.043       .  S
N994        H998   1.046   1_545  S
C999       C1000   1.411       .  A
C999       C1004   1.406       .  A
C999       H1006   1.083       .  S
C1000      C1001   1.422       .  A
C1001      C1002   1.402       .  A
C1001      N1008   1.433       .  S
C1002      C1003   1.403       .  A
C1002      H1007   1.084       .  S
C1003      C1004   1.406       .  A
C1004      N1005   1.438       .  S
N1005      H1009   1.046       .  S
N1005      H1010   1.046       .  S
N1008      H1011   1.045       .  S
N1008      H1012   1.046       .  S
C1013      C1014   1.408       .  A
C1013      C1018   1.405       .  A
C1013      H1020   1.084       .  S
C1014      C1015   1.410       .  A
C1015      C1016   1.401       .  A
C1015      N1022   1.433       .  S
C1016      C1017   1.401       .  A
C1016      H1021   1.085       .  S
C1017      C1018   1.404       .  A
C1018      N1019   1.437       .  S
N1019      H1023   1.046       .  S
N1019      H1024   1.046   1_655  S
N1022      H1025   1.046       .  S
N1022      H1026   1.046       .  S
C1027      C1028   1.413       .  A
C1027      C1032   1.419       .  A
C1027      H1034   1.083       .  S
C1028      C1029   1.425       .  A
C1029      C1030   1.406       .  A
C1029      N1036   1.432       .  S
C1030      C1031   1.405       .  A
C1030      H1035   1.084       .  S
C1031      C1032   1.412       .  A
C1032      N1033   1.431       .  S
N1033      H1037   1.046       .  S
N1033      H1038   1.046       .  S
N1036      H1039   1.046       .  S
N1036      H1040   1.041       .  S
C1041      C1042   1.406       .  A
C1041      C1046   1.397       .  A
C1041      H1048   1.084       .  S
C1042      C1043   1.410       .  A
C1043      C1044   1.416       .  A
C1043      N1050   1.436       .  S
C1044      C1045   1.407       .  A
C1044      H1049   1.083       .  S
C1045      C1046   1.404       .  A
C1046      N1047   1.438       .  S
N1047      H1051   1.046       .  S
N1047      H1052   1.044       .  S
N1050      H1053   1.046   1_655  S
N1050      H3102   1.046   1_554  S
H1054      N3098   1.046       .  S
C1055      C1056   1.408       .  A
C1055      C1060   1.417       .  A
C1055      H1062   1.084       .  S
C1056      C1057   1.413       .  A
C1057      C1058   1.413       .  A
C1057      N1064   1.439       .  S
C1058      C1059   1.408       .  A
C1058      H1063   1.084       .  S
C1059      C1060   1.411       .  A
C1060      N1061   1.437       .  S
N1061      H1065   1.046       .  S
N1061      H1066   1.045       .  S
N1064      H1067   1.046       .  S
N1064      H1068   1.046       .  S
C1069      C1070   1.396       .  A
C1069      C1074   1.399       .  A
C1069      H1076   1.085       .  S
C1070      C1071   1.408       .  A
C1071      C1072   1.403       .  A
C1071      N1078   1.432       .  S
C1072      C1073   1.404       .  A
C1072      H1077   1.084       .  S
C1073      C1074   1.417       .  A
C1074      N1075   1.433       .  S
N1075      H1079   1.046       .  S
N1075      H1080   1.046       .  S
N1078      H1081   1.045       .  S
N1078      H1082   1.045       .  S
C1083      C1084   1.409       .  A
C1083      C1088   1.404       .  A
C1083      H1090   1.083       .  S
C1084      C1085   1.416       .  A
C1085      C1086   1.400       .  A
C1085      N1092   1.439       .  S
C1086      C1087   1.400       .  A
C1086      H1091   1.083       .  S
C1087      C1088   1.403       .  A
C1088      N1089   1.431       .  S
N1089      H1093   1.046       .  S
N1089      H1094   1.044       .  S
N1092      H1095   1.046       .  S
N1092      H1096   1.046       .  S
C1097      C1098   1.406       .  A
C1097      C1102   1.406       .  A
C1097      H1104   1.084       .  S
C1098      C1099   1.414       .  A
C1099      C1100   1.407       .  A
C1099      N1106   1.433       .  S
C1100      C1101   1.406       .  A
C1100      H1105   1.084       .  S
C1101      C1102   1.410       .  A
C1102      N1103   1.432       .  S
N1103      H1108   1.045       .  S
N1103      H3155   1.046       .  S
N1106      H1109   1.046       .  S
N1106      H1110   1.046       .  S
H1107      N3151   1.046       .  S
C1111      C1112   1.409       .  A
C1111      C1116   1.415       .  A
C1111      H1118   1.083       .  S
C1112      C3161   1.414       .  A
C1113      C1114   1.412       .  A
C1113      C3160   1.422   1_554  A
C1113      N1120   1.436       .  S
C1114      C1115   1.399       .  A
C1114      H1119   1.083       .  S
C1115      C3164   1.431   1_554  A
C1116      C3163   1.414       .  A
C1116      N1117   1.432       .  S
N1117      H1121   1.045       .  S
N1117      H1122   1.046       .  S
N1120      H1123   1.045       .  S
N1120      H1124   1.046       .  S
C1125      C1126   1.406       .  A
C1125      C1130   1.413       .  A
C1125      H1132   1.084       .  S
C1126      C1127   1.410       .  A
C1127      C1128   1.414       .  A
C1127      N1134   1.432       .  S
C1128      C1129   1.407       .  A
C1128      H1133   1.084       .  S
C1129      C1130   1.412       .  A
C1130      N1131   1.438       .  S
N1131      H1135   1.046       .  S
N1131      H1136   1.045       .  S
N1134      H1137   1.046       .  S
N1134      H1138   1.045       .  S
C1139      C1140   1.413       .  A
C1139      C1144   1.403       .  A
C1139      H1146   1.084       .  S
C1140      C1141   1.399       .  A
C1141      C1142   1.397       .  A
C1141      N1148   1.433       .  S
C1142      C1143   1.416       .  A
C1142      H1147   1.084       .  S
C1143      C1144   1.404       .  A
C1144      N1145   1.437       .  S
N1145      H1149   1.046       .  S
N1145      H1150   1.046       .  S
N1148      H1151   1.046       .  S
N1148      H1152   1.046       .  S
C1153      C1154   1.408       .  A
C1153      C1158   1.399       .  A
C1153      H1160   1.084       .  S
C1154      C1155   1.402       .  A
C1155      C1156   1.400       .  A
C1155      N1162   1.432       .  S
C1156      C1157   1.409       .  A
C1156      H1161   1.084       .  S
C1157      C1158   1.402       .  A
C1158      N1159   1.438       .  S
N1159      H1163   1.046       .  S
N1159      H1164   1.045       .  S
N1162      H1165   1.046       .  S
N1162      H1166   1.046       .  S
C1167      C1168   1.411       .  A
C1167      C1172   1.410       .  A
C1167      H1174   1.084       .  S
C1168      C1169   1.405       .  A
C1169      C1170   1.395       .  A
C1169      N1176   1.438   1_655  S
C1170      C1171   1.406       .  A
C1170      H1175   1.082       .  S
C1171      C1172   1.404       .  A
C1172      N1173   1.437       .  S
N1173      H1177   1.046       .  S
N1173      H1178   1.045       .  S
N1176      H1179   1.045       .  S
N1176      H1180   1.046       .  S
C1181      C1182   1.407       .  A
C1181      C1186   1.407       .  A
C1181      H1188   1.084       .  S
C1182      C1183   1.398       .  A
C1183      C1184   1.396       .  A
C1183      N1190   1.433       .  S
C1184      C1185   1.408       .  A
C1184      H1189   1.083       .  S
C1185      C1186   1.406       .  A
C1186      N3235   1.437       .  S
N1187      C3234   1.436       .  S
N1187      H1191   1.046       .  S
N1187      H1192   1.045       .  S
N1190      H1193   1.046       .  S
N1190      H1194   1.046       .  S
C1195      C1196   1.404       .  A
C1195      C1200   1.408       .  A
C1195      H1202   1.084       .  S
C1196      C1197   1.407       .  A
C1197      C1198   1.408       .  A
C1197      N1204   1.432       .  S
C1198      C1199   1.404       .  A
C1198      H1203   1.082       .  S
C1199      C2332   1.483       .  S
C1199      C1200   1.418       .  A
C1200      N1201   1.438       .  S
N1201      H1205   1.046       .  S
N1201      H1206   1.044       .  S
N1204      H1207   1.046       .  S
N1204      H1208   1.045       .  S
C1209      C1210   1.410       .  A
C1209      C1214   1.410       .  A
C1209      H1216   1.083       .  S
C1210      C1211   1.416       .  A
C1211      C1212   1.399       .  A
C1211      N1218   1.433       .  S
C1212      C1213   1.400       .  A
C1212      H1217   1.084       .  S
C1213      C1214   1.409       .  A
C1214      N1215   1.432       .  S
N1215      H1219   1.046       .  S
N1215      H1220   1.046       .  S
N1218      H1221   1.046       .  S
N1218      H1222   1.046       .  S
C1223      C1224   1.403       .  A
C1223      C1228   1.402   1_545  A
C1223      H1230   1.084       .  S
C1224      C1225   1.418       .  A
C1225      C1226   1.415   1_545  A
C1225      N1232   1.431       .  S
C1226      C1227   1.410       .  A
C1226      H1231   1.083       .  S
C1227      C1228   1.417       .  A
C1228      N1229   1.434       .  S
N1229      H1233   1.046   1_565  S
N1229      H1234   1.046       .  S
N1232      H1235   1.046       .  S
N1232      H1236   1.044       .  S
C1237      C1238   1.406   1_655  A
C1237      C1242   1.403       .  A
C1237      H1244   1.084       .  S
C1238      C1239   1.419       .  A
C1239      C1240   1.400   1_455  A
C1239      N1246   1.433       .  S
C1240      C1241   1.397       .  A
C1240      H1245   1.085       .  S
C1241      C1242   1.417       .  A
C1242      N1243   1.439       .  S
N1243      H1247   1.045       .  S
N1243      H1248   1.044       .  S
N1246      H1249   1.046       .  S
N1246      H1250   1.046       .  S
C1251      C1252   1.407       .  A
C1251      C1256   1.407       .  A
C1251      H1258   1.084       .  S
C1252      C1253   1.416       .  A
C1253      C1254   1.400       .  A
C1253      N1260   1.433   1_455  S
C1254      C1255   1.398       .  A
C1254      H1259   1.085       .  S
C1255      C1256   1.408       .  A
C1256      N1257   1.432       .  S
N1257      H1261   1.045       .  S
N1257      H1262   1.044       .  S
N1260      H1263   1.046       .  S
N1260      H1264   1.046       .  S
C1265      C1266   1.410       .  A
C1265      C1270   1.408       .  A
C1265      H1272   1.083       .  S
C1266      C1267   1.413       .  A
C1267      C1268   1.404       .  A
C1267      N1274   1.433       .  S
C1268      C1269   1.402       .  A
C1268      H1273   1.079       .  S
C1269      C1270   1.409       .  A
C1270      N1271   1.438       .  S
N1271      H1275   1.046       .  S
N1271      H1276   1.046       .  S
N1274      H1277   1.046       .  S
N1274      H1278   1.046       .  S
C1279      C1280   1.407       .  A
C1279      C1284   1.404       .  A
C1279      H1286   1.085       .  S
C1280      C1281   1.412       .  A
C1281      C1282   1.399       .  A
C1281      N1288   1.439       .  S
C1282      C1283   1.407       .  A
C1282      H1287   1.084       .  S
C1283      C1284   1.406       .  A
C1284      N1285   1.432       .  S
N1285      H1289   1.045       .  S
N1285      H1290   1.046       .  S
N1288      H1291   1.044       .  S
N1288      H1292   1.046       .  S
C1293      C1294   1.404       .  A
C1293      C1298   1.405       .  A
C1293      H1300   1.084       .  S
C1294      C1295   1.418       .  A
C1295      C1296   1.400       .  A
C1295      N1302   1.433       .  S
C1296      C1297   1.396       .  A
C1296      H1301   1.085       .  S
C1297      C1298   1.409       .  A
C1298      N1299   1.432       .  S
N1299      H1303   1.045       .  S
N1299      H1304   1.045       .  S
N1302      H1305   1.046       .  S
N1302      H1306   1.046       .  S
C1307      C1308   1.404       .  A
C1307      C1312   1.409       .  A
C1307      H1314   1.084       .  S
C1308      C1309   1.408       .  A
C1309      C1310   1.410       .  A
C1309      N1316   1.431       .  S
C1310      C1311   1.407       .  A
C1310      H1315   1.084       .  S
C1311      C1312   1.413       .  A
C1312      N1313   1.437       .  S
N1313      H1317   1.046       .  S
N1313      H1318   1.045       .  S
N1316      H1319   1.044       .  S
N1316      H1320   1.045       .  S
C1321      C1322   1.402       .  A
C1321      C1326   1.403       .  A
C1321      H1328   1.083       .  S
C1322      C1323   1.410       .  A
C1323      C1324   1.406       .  A
C1323      N1330   1.433       .  S
C1324      C1325   1.406       .  A
C1324      H1329   1.084       .  S
C1325      C1326   1.413       .  A
C1326      N1327   1.433       .  S
N1327      H1331   1.046       .  S
N1327      H1332   1.046       .  S
N1330      H1333   1.046       .  S
N1330      H3382   1.046       .  S
H1334      N3378   1.046       .  S
C1335      C1336   1.407       .  A
C1335      C1340   1.415       .  A
C1335      H1342   1.084       .  S
C1336      C1337   1.409       .  A
C1337      C1338   1.412       .  A
C1337      N1344   1.432       .  S
C1338      C1339   1.408       .  A
C1338      H1343   1.084       .  S
C1339      C1340   1.412       .  A
C1340      N1341   1.437       .  S
N1341      H1345   1.046       .  S
N1341      H1346   1.045       .  S
N1344      H1347   1.046       .  S
N1344      H1348   1.045       .  S
C1349      C1350   1.408       .  A
C1349      C1354   1.406       .  A
C1349      H1356   1.085       .  S
C1350      C1351   1.412       .  A
C1351      C1352   1.397       .  A
C1351      N1358   1.439       .  S
C1352      C1353   1.406       .  A
C1352      H1357   1.084       .  S
C1353      C1354   1.408       .  A
C1354      N1355   1.437       .  S
N1355      H1359   1.046       .  S
N1355      H1360   1.046       .  S
N1358      H1361   1.042       .  S
N1358      H1362   1.046       .  S
C1363      C1364   1.407       .  A
C1363      C1368   1.409       .  A
C1363      H1370   1.084       .  S
C1364      C1365   1.406       .  A
C1365      C1366   1.394       .  A
C1365      N1372   1.434       .  S
C1366      C1367   1.407       .  A
C1366      H1371   1.084       .  S
C1367      C1368   1.411       .  A
C1368      N1369   1.437       .  S
N1369      H1373   1.046       .  S
N1369      H1374   1.045       .  S
N1372      H1375   1.045       .  S
N1372      H1376   1.045       .  S
C1377      C1382   1.408   1_556  A
C1377      C3426   1.406       .  A
C1377      H1384   1.084       .  S
C1378      C1379   1.414       .  A
C1378      C3425   1.408       .  A
C1379      C1380   1.418       .  A
C1379      N1386   1.437       .  S
C1380      C3429   1.411       .  A
C1380      H1385   1.083       .  S
C1381      C1382   1.415       .  A
C1381      C3428   1.412       .  A
C1382      N1383   1.433       .  S
N1383      H1387   1.046       .  S
N1383      H1388   1.046       .  S
N1386      H1389   1.046       .  S
N1386      H1390   1.046       .  S
C1391      C1392   1.402       .  A
C1391      C1396   1.410       .  A
C1391      H1398   1.082       .  S
C1392      C1393   1.410       .  A
C1393      C1394   1.412       .  A
C1393      N1400   1.432       .  S
C1394      C1395   1.406       .  A
C1394      H1399   1.084       .  S
C1395      C2266   1.490       .  S
C1395      C1396   1.421       .  A
C1396      N1397   1.438       .  S
N1397      H1401   1.045       .  S
N1397      H1402   1.044       .  S
N1400      H1403   1.046       .  S
N1400      H1404   1.045       .  S
C1405      C1406   1.407       .  A
C1405      C1410   1.405       .  A
C1405      H1412   1.084       .  S
C1406      C1407   1.406       .  A
C1407      C1408   1.405       .  A
C1407      N1414   1.431       .  S
C1408      C1409   1.408       .  A
C1408      H1413   1.085       .  S
C1409      C1410   1.409       .  A
C1410      N1411   1.439       .  S
N1411      H1415   1.046       .  S
N1411      H1416   1.045       .  S
N1414      H1417   1.045       .  S
N1414      H1418   1.044       .  S
C1419      C1420   1.394       .  A
C1419      C1424   1.397       .  A
C1419      H1426   1.085       .  S
C1420      C1421   1.417       .  A
C1421      C1422   1.402       .  A
C1421      N1428   1.436       .  S
C1422      C1423   1.399       .  A
C1422      H1427   1.084       .  S
C1423      C1424   1.415       .  A
C1424      N1425   1.433       .  S
N1425      H1429   1.046       .  S
N1425      H1430   1.045       .  S
N1428      H1431   1.045       .  S
N1428      H1432   1.045       .  S
C1433      C1434   1.402       .  A
C1433      C1438   1.400       .  A
C1433      H1440   1.084       .  S
C1434      C1435   1.414       .  A
C1435      C1436   1.402       .  A
C1435      N1442   1.439       .  S
C1436      C1437   1.401       .  A
C1436      H1441   1.084       .  S
C1437      C1438   1.418       .  A
C1438      N1439   1.433       .  S
N1439      H1443   1.044       .  S
N1439      H1444   1.046       .  S
N1442      H1445   1.046       .  S
N1442      H1446   1.046       .  S
C1447      C1448   1.403       .  A
C1447      C1452   1.397       .  A
C1447      H1454   1.084   1_554  S
C1448      C1449   1.407       .  A
C1449      C1450   1.404       .  A
C1449      N1456   1.437       .  S
C1450      C1451   1.405       .  A
C1450      H1455   1.084       .  S
C1451      C1452   1.407       .  A
C1452      N1453   1.433   1_554  S
N1453      H1457   1.046       .  S
N1453      H1458   1.046       .  S
N1456      H1459   1.046       .  S
N1456      H1460   1.045       .  S
C1461      C1462   1.404       .  A
C1461      C1466   1.410       .  A
C1461      H1468   1.084       .  S
C1462      C1463   1.416       .  A
C1463      C1464   1.407       .  A
C1463      N1470   1.433       .  S
C1464      C1465   1.405       .  A
C1464      H1469   1.084       .  S
C1465      C1466   1.420       .  A
C1466      N1467   1.438       .  S
N1467      H1471   1.046       .  S
N1467      H1472   1.045       .  S
N1470      H1473   1.045       .  S
N1470      H1474   1.045       .  S
C1475      C1476   1.409       .  A
C1475      C1480   1.409       .  A
C1475      H1482   1.084       .  S
C1476      C1477   1.403       .  A
C1477      C1478   1.403       .  A
C1477      N1484   1.437       .  S
C1478      C1479   1.407       .  A
C1478      H1483   1.084       .  S
C1479      C1480   1.410       .  A
C1480      N1481   1.437       .  S
N1481      H1485   1.046       .  S
N1481      H1486   1.046       .  S
N1484      H1487   1.045       .  S
N1484      H1488   1.046       .  S
C1489      C1490   1.409       .  A
C1489      C1494   1.404       .  A
C1489      H1496   1.084       .  S
C1490      C1491   1.406       .  A
C1491      C1492   1.403       .  A
C1491      N1498   1.432       .  S
C1492      C1493   1.408       .  A
C1492      H1497   1.085       .  S
C1493      C1494   1.404       .  A
C1494      N1495   1.438       .  S
N1495      H1499   1.046       .  S
N1495      H1500   1.045       .  S
N1498      H1502   1.046       .  S
N1498      H3549   1.046       .  S
H1501      N3546   1.046       .  S
C1503      C1504   1.409       .  A
C1503      C1508   1.412       .  A
C1503      H1510   1.084       .  S
C1504      C1505   1.412       .  A
C1505      C1506   1.413       .  A
C1505      N1512   1.431       .  S
C1506      C1507   1.410       .  A
C1506      H1511   1.083       .  S
C1507      C1508   1.416       .  A
C1508      N1509   1.432       .  S
N1509      H1513   1.046       .  S
N1509      H1514   1.046       .  S
N1512      H1515   1.046       .  S
N1512      H1516   1.046       .  S
C1517      C1518   1.404       .  A
C1517      C1522   1.414       .  A
C1517      H1524   1.083       .  S
C1518      C1519   1.413       .  A
C1519      C1520   1.408       .  A
C1519      N1526   1.433       .  S
C1520      C1521   1.402       .  A
C1520      H1525   1.083       .  S
C1521      C1522   1.413       .  A
C1522      N1523   1.437       .  S
N1523      H1527   1.046       .  S
N1523      H1528   1.045       .  S
N1526      H1529   1.046       .  S
N1526      H1530   1.045       .  S
C1531      C1532   1.400       .  A
C1531      C1536   1.409       .  A
C1531      H1538   1.083       .  S
C1532      C1533   1.422       .  A
C1533      C1534   1.387   1_455  A
C1533      N1540   1.434   1_455  S
C1534      C1535   1.391       .  A
C1534      H1539   1.085       .  S
C1535      C1536   1.415   1_655  A
C1536      N1537   1.432       .  S
N1537      H1541   1.046       .  S
N1537      H1542   1.045       .  S
N1540      H1543   1.046       .  S
N1540      H1544   1.045       .  S
C1545      C1546   1.394       .  A
C1545      C1550   1.397       .  A
C1545      H1552   1.085       .  S
C1546      C1547   1.414       .  A
C1547      C1548   1.399       .  A
C1547      N1554   1.438       .  S
C1548      C1549   1.404       .  A
C1548      H1553   1.083       .  S
C1549      C1550   1.424       .  A
C1550      N1551   1.440   1_655  S
N1551      H1555   1.046   1_455  S
N1551      H1556   1.045       .  S
N1554      H1557   1.045       .  S
N1554      H1558   1.045       .  S
C1559      C1560   1.406       .  A
C1559      C1564   1.408       .  A
C1559      H1566   1.084       .  S
C1560      C2200   1.485       .  S
C1560      C1561   1.412       .  A
C1561      C1562   1.413       .  A
C1561      N1568   1.438   1_554  S
C1562      C1563   1.406       .  A
C1562      H1567   1.084       .  S
C1563      C1564   1.414       .  A
C1564      N1565   1.432       .  S
N1565      H1569   1.045       .  S
N1565      H1570   1.045       .  S
N1568      H1572   1.046       .  S
N1568      H3619   1.045       .  S
H1571      N3616   1.045       .  S
C1573      C1574   1.403       .  A
C1573      C1578   1.408       .  A
C1573      H1580   1.084       .  S
C1574      C1575   1.414       .  A
C1575      C1576   1.397       .  A
C1575      N1582   1.433   1_455  S
C1576      C1577   1.396       .  A
C1576      H1581   1.085       .  S
C1577      C1578   1.412       .  A
C1578      N1579   1.437       .  S
N1579      H1583   1.046       .  S
N1579      H1584   1.045       .  S
N1582      H1585   1.045       .  S
N1582      H1586   1.046   1_655  S
C1587      C1588   1.407       .  A
C1587      C1592   1.408       .  A
C1587      H1594   1.083       .  S
C1588      C1589   1.418       .  A
C1589      C1590   1.398       .  A
C1589      N1596   1.433   1_655  S
C1590      C1591   1.397       .  A
C1590      H1595   1.085       .  S
C1591      C1592   1.411       .  A
C1592      N1593   1.438       .  S
N1593      H1597   1.046       .  S
N1593      H1598   1.044       .  S
N1596      H1599   1.046       .  S
N1596      H1600   1.046       .  S
C1601      C1602   1.406       .  A
C1601      C1606   1.407       .  A
C1601      H1608   1.084       .  S
C1602      C1603   1.406       .  A
C1603      C1604   1.397       .  A
C1603      N1610   1.433       .  S
C1604      C1605   1.402       .  A
C1604      H1609   1.083       .  S
C1605      C1606   1.408       .  A
C1606      N1607   1.437       .  S
N1607      H1611   1.046       .  S
N1607      H1612   1.046       .  S
N1610      H1613   1.046       .  S
N1610      H1614   1.046       .  S
C1615      C1616   1.405       .  A
C1615      C1620   1.405       .  A
C1615      H1622   1.084       .  S
C1616      C1617   1.419       .  A
C1617      C1618   1.407       .  A
C1617      N1624   1.432       .  S
C1618      C1619   1.407       .  A
C1618      H1623   1.084       .  S
C1619      C1620   1.415       .  A
C1620      N1621   1.433       .  S
N1621      H1625   1.046       .  S
N1621      H1626   1.046       .  S
N1624      H1627   1.045       .  S
N1624      H1628   1.044       .  S
C1629      C1630   1.398       .  A
C1629      C1634   1.395       .  A
C1629      H1636   1.085       .  S
C1630      C1631   1.400       .  A
C1631      C1632   1.402       .  A
C1631      N1638   1.438       .  S
C1632      C1633   1.414       .  A
C1632      H1637   1.083       .  S
C1633      C1634   1.420       .  A
C1634      N3683   1.432       .  S
N1635      C3682   1.433       .  S
N1635      H1639   1.044       .  S
N1635      H1640   1.045       .  S
N1638      H1641   1.046   1_455  S
N1638      H1642   1.046       .  S
C1643      C1644   1.394       .  A
C1643      C1648   1.399       .  A
C1643      H1650   1.084       .  S
C1644      C1645   1.409       .  A
C1645      C1646   1.404       .  A
C1645      N1652   1.433       .  S
C1646      C1647   1.401       .  A
C1646      H1651   1.081       .  S
C1647      C1648   1.418       .  A
C1648      N1649   1.433       .  S
N1649      H1653   1.046       .  S
N1649      H1654   1.045       .  S
N1652      H1655   1.046       .  S
N1652      H1656   1.045       .  S
C1657      C1658   1.407       .  A
C1657      C1662   1.413       .  A
C1657      H1664   1.084       .  S
C1658      C1659   1.410       .  A
C1659      C1660   1.414       .  A
C1659      N1666   1.438       .  S
C1660      C1661   1.409       .  A
C1660      H1665   1.084       .  S
C1661      C2419   1.489       .  S
C1661      C1662   1.410       .  A
C1662      N1663   1.437       .  S
N1663      H1667   1.046       .  S
N1663      H3716   1.045       .  S
N1666      H1669   1.045       .  S
N1666      H1670   1.046       .  S
H1668      N3711   1.045   1_554  S
C1671      C1672   1.405       .  A
C1671      C1676   1.404       .  A
C1671      H1678   1.081       .  S
C1672      C1673   1.415       .  A
C1673      C1674   1.407       .  A
C1673      N1680   1.432       .  S
C1674      C1675   1.403       .  A
C1674      H1679   1.084       .  S
C1675      C1676   1.410       .  A
C1676      N1677   1.433       .  S
N1677      H1681   1.045       .  S
N1677      H1682   1.045       .  S
N1680      H1683   1.046       .  S
N1680      H1684   1.045       .  S
C1685      C1686   1.406       .  A
C1685      C1690   1.409       .  A
C1685      H1692   1.084       .  S
C1686      C1687   1.417       .  A
C1687      C1688   1.414       .  A
C1687      N1694   1.437       .  S
C1688      C1689   1.403       .  A
C1688      H1693   1.084       .  S
C1689      C2727   1.490       .  S
C1689      C1690   1.418       .  A
C1690      N1691   1.433       .  S
N1691      H1695   1.045       .  S
N1691      H1696   1.045       .  S
N1694      H1697   1.045       .  S
N1694      H1698   1.046       .  S
C1699      C1700   1.409       .  A
C1699      C1704   1.400       .  A
C1699      H1706   1.083       .  S
C1700      C1701   1.412       .  A
C1701      C1702   1.401       .  A
C1701      N1708   1.439       .  S
C1702      C1703   1.407       .  A
C1702      H1707   1.084       .  S
C1703      C1704   1.412       .  A
C1704      N1705   1.432       .  S
N1705      H1709   1.045       .  S
N1705      H1710   1.046       .  S
N1708      H1711   1.045       .  S
N1708      H1712   1.046       .  S
C1713      C1714   1.412       .  A
C1713      C1718   1.415       .  A
C1713      H1720   1.083       .  S
C1714      C1715   1.425       .  A
C1715      C1716   1.400       .  A
C1715      N1722   1.433       .  S
C1716      C1717   1.402       .  A
C1716      H1721   1.084       .  S
C1717      C1718   1.409       .  A
C1718      N1719   1.431       .  S
N1719      H1723   1.046       .  S
N1719      H1724   1.045       .  S
N1722      H1725   1.041       .  S
N1722      H1726   1.046       .  S
C1727      C1728   1.403       .  A
C1727      C1732   1.410       .  A
C1727      H1734   1.083       .  S
C1728      C1729   1.407       .  A
C1729      C1730   1.400       .  A
C1729      N1736   1.433       .  S
C1730      C1731   1.401       .  A
C1730      H1735   1.084       .  S
C1731      C1732   1.410       .  A
C1732      N1733   1.436       .  S
N1733      H1737   1.046       .  S
N1733      H1738   1.045       .  S
N1736      H1739   1.046       .  S
N1736      H1740   1.046       .  S
C1741      C1742   1.401       .  A
C1741      C1746   1.396       .  A
C1741      H1748   1.085       .  S
C1742      C1743   1.412       .  A
C1743      C1744   1.400       .  A
C1743      N1750   1.433       .  S
C1744      C1745   1.403       .  A
C1744      H1749   1.084       .  S
C1745      C1746   1.405       .  A
C1746      N1747   1.433       .  S
N1747      H1751   1.045       .  S
N1747      H1752   1.046       .  S
N1750      H1753   1.045       .  S
N1750      H3802   1.045   1_554  S
H1754      N3798   1.044       .  S
C1755      C1756   1.413       .  A
C1755      C1760   1.403       .  A
C1755      H1762   1.084       .  S
C1756      C1757   1.412       .  A
C1757      C1758   1.413       .  A
C1757      N1764   1.432       .  S
C1758      C1759   1.408       .  A
C1758      H1763   1.084       .  S
C1759      C1760   1.410       .  A
C1760      N1761   1.433       .  S
N1761      H1765   1.046       .  S
N1761      H1766   1.045       .  S
N1764      H1767   1.045       .  S
N1764      H1768   1.044       .  S
C1769      C1770   1.405       .  A
C1769      C1774   1.405       .  A
C1769      H1776   1.083       .  S
C1770      C1771   1.419       .  A
C1771      C1772   1.403       .  A
C1771      N1778   1.433       .  S
C1772      C1773   1.399       .  A
C1772      H1777   1.085       .  S
C1773      C1774   1.407       .  A
C1774      N1775   1.431       .  S
N1775      H1779   1.045       .  S
N1775      H1780   1.044       .  S
N1778      H1781   1.042       .  S
N1778      H1782   1.046       .  S
C1783      C1784   1.412       .  A
C1783      C1788   1.394       .  A
C1783      H1790   1.084       .  S
C1784      C1785   1.404       .  A
C1785      C1786   1.398       .  A
C1785      N1792   1.438       .  S
C1786      C1787   1.406       .  A
C1786      H1791   1.084       .  S
C1787      C1788   1.397       .  A
C1788      N1789   1.433       .  S
N1789      H1793   1.046       .  S
N1789      H1794   1.046       .  S
N1792      H1795   1.045       .  S
N1792      H1796   1.046       .  S
C1797      C1798   1.406       .  A
C1797      C1802   1.399       .  A
C1797      H1804   1.084       .  S
C1798      C1799   1.416       .  A
C1799      C1800   1.401       .  A
C1799      N1806   1.432       .  S
C1800      C1801   1.405       .  A
C1800      H1805   1.083       .  S
C1801      C1802   1.407       .  A
C1802      N1803   1.433       .  S
N1803      H1807   1.045   1_554  S
N1803      H1808   1.045   1_554  S
N1806      H1809   1.045       .  S
N1806      H1810   1.045       .  S
C1811      C1812   1.401       .  A
C1811      C1816   1.400       .  A
C1811      H3866   1.084       .  S
C1812      C1813   1.417       .  A
C1813      C1814   1.413       .  A
C1813      N1820   1.438       .  S
C1814      C1815   1.403       .  A
C1814      H1819   1.084       .  S
C1815      C1816   1.409       .  A
C1816      N3865   1.433       .  S
N1817      C3864   1.433       .  S
N1817      H1821   1.046       .  S
N1817      H1822   1.046       .  S
H1818      C3859   1.084       .  S
N1820      H1823   1.046       .  S
N1820      H1824   1.046       .  S
C1825      C1826   1.404       .  A
C1825      C1830   1.409       .  A
C1825      H1832   1.084       .  S
C1826      C1827   1.414       .  A
C1827      C1828   1.411       .  A
C1827      N1834   1.432       .  S
C1828      C1829   1.404       .  A
C1828      H1833   1.084       .  S
C1829      C1830   1.422       .  A
C1830      N1831   1.439       .  S
N1831      H1835   1.046       .  S
N1831      H1836   1.044       .  S
N1834      H1837   1.046       .  S
N1834      H1838   1.045       .  S
C1839      C1840   1.391       .  A
C1839      C1844   1.394       .  A
C1839      H1846   1.085       .  S
C1840      C1841   1.412       .  A
C1841      C1842   1.410       .  A
C1841      N1848   1.431       .  S
C1842      C1843   1.401       .  A
C1842      H1847   1.083       .  S
C1843      C1844   1.424       .  A
C1844      N1845   1.434       .  S
N1845      H1849   1.045       .  S
N1845      H1850   1.046       .  S
N1848      H1851   1.045       .  S
N1848      H1852   1.045       .  S
C1853      C1854   1.415       .  A
C1853      C1858   1.401       .  A
C1853      H1860   1.084       .  S
C1854      C1855   1.396       .  A
C1855      C1856   1.393       .  A
C1855      N1862   1.432       .  S
C1856      C1857   1.408       .  A
C1856      H1861   1.082       .  S
C1857      C1858   1.400       .  A
C1858      N1859   1.437       .  S
N1859      H1863   1.046       .  S
N1859      H1864   1.045       .  S
N1862      H1865   1.046       .  S
N1862      H1866   1.045       .  S
C1867      C1868   1.400       .  A
C1867      C1872   1.415       .  A
C1867      H1874   1.084       .  S
C1868      C3917   1.425       .  A
C1869      C1870   1.406       .  A
C1869      C3916   1.433   1_554  A
C1869      N1876   1.430       .  S
C1870      C1871   1.395       .  A
C1870      H1875   1.084       .  S
C1871      C3920   1.424   1_554  A
C1872      C3919   1.425       .  A
C1872      N1873   1.437       .  S
N1873      H1877   1.046       .  S
N1873      H1878   1.045       .  S
N1876      H1879   1.045       .  S
N1876      H1880   1.036       .  S
C1881      C1882   1.411       .  A
C1881      C1886   1.407       .  A
C1881      H1888   1.083       .  S
C1882      C1883   1.422       .  A
C1883      C1884   1.397       .  A
C1883      N1890   1.433       .  S
C1884      C1885   1.399       .  A
C1884      H1889   1.085       .  S
C1885      C1886   1.408       .  A
C1886      N1887   1.438       .  S
N1887      H1891   1.046       .  S
N1887      H1892   1.046       .  S
N1890      H1893   1.044       .  S
N1890      H1894   1.046       .  S
C1895      C1896   1.409       .  A
C1895      C1900   1.398       .  A
C1895      H1902   1.084       .  S
C1896      C1897   1.413       .  A
C1897      C1898   1.402       .  A
C1897      N1904   1.432       .  S
C1898      C1899   1.402       .  A
C1898      H1903   1.084       .  S
C1899      C1900   1.411       .  A
C1900      N1901   1.433       .  S
N1901      H1905   1.046       .  S
N1901      H1906   1.045       .  S
N1904      H1907   1.046       .  S
N1904      H1908   1.046       .  S
C1909      C1910   1.403       .  A
C1909      C1914   1.403       .  A
C1909      H1916   1.084       .  S
C1910      C1911   1.415       .  A
C1911      C1912   1.397       .  A
C1911      N1918   1.433       .  S
C1912      C1913   1.397       .  A
C1912      H1917   1.085       .  S
C1913      C1914   1.408       .  A
C1914      N1915   1.432       .  S
N1915      H1919   1.045       .  S
N1915      H1920   1.045       .  S
N1918      H1921   1.046       .  S
N1918      H1922   1.046       .  S
C1923      C1924   1.404       .  A
C1923      C1928   1.400       .  A
C1923      H1930   1.084       .  S
C1924      C1925   1.416       .  A
C1925      C1926   1.393       .  A
C1925      N1932   1.434       .  S
C1926      C1927   1.394       .  A
C1926      H1931   1.085       .  S
C1927      C1928   1.413       .  A
C1928      N1929   1.432       .  S
N1929      H1933   1.043       .  S
N1929      H1934   1.045       .  S
N1932      H1935   1.046       .  S
N1932      H1936   1.046       .  S
C1937      C1938   1.405       .  A
C1937      C1942   1.411       .  A
C1937      H1944   1.084       .  S
C1938      C1939   1.415       .  A
C1939      C1940   1.415       .  A
C1939      N1946   1.437       .  S
C1940      C1941   1.404       .  A
C1940      H1945   1.084       .  S
C1941      C1942   1.410       .  A
C1942      N1943   1.432       .  S
N1943      H1947   1.045       .  S
N1943      H1948   1.046       .  S
N1946      H1949   1.045       .  S
N1946      H1950   1.046       .  S
C1951      C1952   1.408       .  A
C1951      C1956   1.411       .  A
C1951      H1958   1.084       .  S
C1952      C1953   1.415       .  A
C1953      C1954   1.408       .  A
C1953      N1960   1.438       .  S
C1954      C1955   1.406       .  A
C1954      H1959   1.084       .  S
C1955      C1956   1.413       .  A
C1956      N1957   1.437       .  S
N1957      H1961   1.046       .  S
N1957      H1962   1.045       .  S
N1960      H1963   1.046       .  S
N1960      H1964   1.045       .  S
C1965      C1966   1.399       .  A
C1965      C1970   1.404       .  A
C1965      H1972   1.084       .  S
C1966      C1967   1.405       .  A
C1967      C1968   1.391       .  A
C1967      N1974   1.434       .  S
C1968      C1969   1.397       .  A
C1968      H1973   1.085       .  S
C1969      C1970   1.410       .  A
C1970      N1971   1.437       .  S
N1971      H1975   1.045       .  S
N1971      H1976   1.045       .  S
N1974      H1977   1.046       .  S
N1974      H1978   1.045       .  S
C1979      C1980   1.406       .  A
C1979      C1984   1.416       .  A
C1979      H1986   1.084       .  S
C1980      C1981   1.407       .  A
C1981      C1982   1.409       .  A
C1981      N1988   1.432       .  S
C1982      C1983   1.410       .  A
C1982      H1987   1.084       .  S
C1983      C2463   1.498       .  S
C1983      C1984   1.416       .  A
C1984      N1985   1.436       .  S
N1985      H1989   1.046       .  S
N1985      H4038   1.045       .  S
N1988      H1991   1.046       .  S
N1988      H1992   1.045       .  S
H1990      N4033   1.045   1_554  S
C1993      C1994   1.407       .  A
C1993      C1998   1.397       .  A
C1993      H2000   1.084       .  S
C1994      C1995   1.407       .  A
C1995      C1996   1.402       .  A
C1995      N2002   1.432       .  S
C1996      C1997   1.406       .  A
C1996      H2001   1.085       .  S
C1997      C1998   1.400       .  A
C1998      N1999   1.433       .  S
N1999      H2003   1.046       .  S
N1999      H2004   1.046       .  S
N2002      H2005   1.045       .  S
N2002      H2006   1.046       .  S
C2007      C2008   1.407       .  A
C2007      C2012   1.397       .  A
C2007      H2014   1.084       .  S
C2008      C2009   1.404       .  A
C2009      C2010   1.399       .  A
C2009      N2016   1.432       .  S
C2010      C2011   1.404       .  A
C2010      H2015   1.085       .  S
C2011      C2012   1.405       .  A
C2012      N4061   1.439       .  S
N2013      C4060   1.438       .  S
N2013      H2017   1.046       .  S
N2013      H2018   1.046       .  S
N2016      H2019   1.046       .  S
N2016      H2020   1.046       .  S
C2021      C2022   1.411       .  A
C2021      C2026   1.409       .  A
C2021      H2028   1.084       .  S
C2022      C2023   1.423       .  A
C2023      C2024   1.403       .  A
C2023      N2030   1.433       .  S
C2024      C2025   1.405       .  A
C2024      H2029   1.084       .  S
C2025      C2026   1.417       .  A
C2026      N2027   1.432       .  S
N2027      H2031   1.044       .  S
N2027      H2032   1.046       .  S
N2030      H2033   1.045       .  S
N2030      H2034   1.044       .  S
C2035      C2036   1.402       .  A
C2035      C2040   1.399       .  A
C2035      H2042   1.084       .  S
C2036      C2037   1.415       .  A
C2037      C2038   1.411       .  A
C2037      N2044   1.438       .  S
C2038      C2039   1.405       .  A
C2038      H2043   1.084       .  S
C2039      C2040   1.411       .  A
C2040      N2041   1.432       .  S
N2041      H2045   1.045       .  S
N2041      H2046   1.046       .  S
N2044      H2047   1.046       .  S
N2044      H2048   1.046       .  S
Fe2049     O2065   2.081       .  S
Fe2049     O2055   2.077       .  S
Fe2049     O2062   2.074       .  S
Fe2049     O2054   2.042       .  S
Fe2049     O2060   1.981       .  S
Fe2050     O2053   2.045       .  S
Fe2050     O2057   2.017       .  S
Fe2050     O2061   2.068       .  S
Fe2050     O2066   2.038       .  S
Fe2050     O2060   1.946       .  S
Fe2051     O2069   2.126       .  S
Fe2051     O2056   2.096       .  S
Fe2051     O2063   2.126       .  S
Fe2051     O2052   2.088       .  S
Fe2051     O2060   1.951       .  S
O2052      C2059   1.274       .  A
O2053      C2067   1.269       .  A
O2054      C2059   1.262       .  A
O2055      C2058   1.278       .  A
O2056      C2068   1.274       .  A
O2057      C2070   1.254       .  A
C2058      O2063   1.283       .  A
C2058      C4070   1.510       .  S
C2059      C4045   1.459       .  S
O2061      C2064   1.272       .  A
O2062      C2064   1.276       .  A
C2064      C4084   1.478       .  S
O2065      C2070   1.263       .  A
O2066      C2068   1.262       .  A
C2067      O2069   1.287       .  A
C2067      C4028   1.489       .  S
C2068      C4014   1.475       .  S
C2070      C4056   1.480       .  S
Fe2071     O2087   2.098       .  S
Fe2071     O2077   2.095       .  S
Fe2071     O2084   2.079       .  S
Fe2071     O2076   2.044       .  S
Fe2071     O2082   1.981       .  S
Fe2072     O2075   2.054       .  S
Fe2072     O2079   2.026       .  S
Fe2072     O2083   2.081       .  S
Fe2072     O2088   2.057       .  S
Fe2072     O2082   1.943       .  S
Fe2073     O2091   2.123       .  S
Fe2073     O2078   2.075       .  S
Fe2073     O2085   2.108       .  S
Fe2073     O2074   2.092       .  S
Fe2073     O2082   1.948       .  S
O2074      C2081   1.275       .  A
O2075      C2089   1.270       .  A
O2076      C2081   1.261       .  A
O2077      C2080   1.284       .  A
O2078      C2090   1.268       .  A
O2079      C2092   1.256       .  A
C2080      O2085   1.279       .  A
C2080      C4073   1.517       .  S
C2081      C3961   1.457       .  S
O2083      C2086   1.274       .  A
O2084      C2086   1.276       .  A
C2086      C4000   1.493       .  S
O2087      C2092   1.270       .  A
O2088      C2090   1.266       .  A
C2089      O2091   1.288       .  A
C2089      C3989   1.488       .  S
C2090      C3947   1.473       .  S
C2092      C3972   1.492       .  S
Fe2093     O2109   2.079       .  S
Fe2093     O2099   2.028       .  S
Fe2093     O2106   2.079       .  S
Fe2093     O2098   2.098       .  S
Fe2093     O2104   1.962       .  S
Fe2094     O2097   2.039       .  S
Fe2094     O2101   2.053       .  S
Fe2094     O2105   2.033       .  S
Fe2094     O2110   2.069       .  S
Fe2094     O2104   1.944       .  S
Fe2095     O2113   2.078       .  S
Fe2095     O2100   2.094       .  S
Fe2095     O2096   2.073       .  S
Fe2095     O2104   1.963       .  S
O2096      C2103   1.266       .  A
O2097      C2111   1.257       .  A
O2098      C2103   1.280       .  A
O2100      C2112   1.282       .  A
O2101      C2114   1.267       .  A
C2102      O2107   1.279       .  A
C2102      C3902   1.463       .  S
C2103      C3916   1.508       .  S
O2105      C2108   1.264       .  A
O2106      C2108   1.273       .  A
C2108      C3888   1.476       .  S
O2109      C2114   1.272       .  A
O2110      C2112   1.275       .  A
C2111      O2113   1.266       .  A
C2111      C3860   1.482       .  S
C2112      C3874   1.477       .  S
C2114      C3930   1.479       .  S
Fe2115     O2131   2.067       .  S
Fe2115     O2121   2.032       .  S
Fe2115     O2128   2.091       .  S
Fe2115     O2120   2.077       .  S
Fe2115     O2126   1.975       .  S
Fe2116     O2119   2.043       .  S
Fe2116     O2123   2.097       .  S
Fe2116     O2127   2.014       .  S
Fe2116     O2132   2.054       .  S
Fe2116     O2126   1.941       .  S
Fe2117     O2135   2.086       .  S
Fe2117     O2122   2.112       .  S
Fe2117     O2118   2.101       .  S
Fe2117     O2126   1.946       .  S
O2118      C2125   1.277       .  A
O2119      C2133   1.264       .  A
O2120      C2125   1.281       .  A
O2122      C2134   1.282       .  A
O2123      C2136   1.277       .  A
C2124      O2129   1.276   1_556  A
C2124      C3832   1.469       .  S
C2125      C3919   1.501       .  S
O2127      C2130   1.249       .  A
O2128      C2130   1.264       .  A
C2130      C3818   1.484       .  S
O2131      C2136   1.275       .  A
O2132      C2134   1.270       .  A
C2133      O2135   1.273       .  A
C2133      C3790   1.472       .  S
C2134      C3807   1.485       .  S
C2136      C3849   1.490       .  S
Fe2137     O2153   2.065       .  S
Fe2137     O2143   2.087       .  S
Fe2137     O2150   2.085       .  S
Fe2137     O2142   2.008       .  S
Fe2137     O2148   1.958       .  S
Fe2138     O2141   2.049       .  S
Fe2138     O2145   2.023       .  S
Fe2138     O2149   2.067       .  S
Fe2138     O2154   2.046       .  S
Fe2138     O2148   1.947       .  S
Fe2139     O2157   2.162       .  S
Fe2139     O2144   2.069       .  S
Fe2139     O2151   2.081       .  S
Fe2139     O2140   2.114       .  S
Fe2139     O2148   1.948       .  S
O2140      C2147   1.281       .  A
O2141      C2155   1.278       .  A
O2142      C2147   1.258       .  A
O2143      C2146   1.278       .  A
O2144      C2156   1.261       .  A
O2145      C2158   1.256       .  A
C2146      O2151   1.273       .  A
C2146      C3762   1.495       .  S
C2147      C3891   1.471       .  S
O2149      C2152   1.281       .  A
O2150      C2152   1.280       .  A
C2152      C3776   1.483       .  S
O2153      C2158   1.264       .  A
O2154      C2156   1.256       .  A
C2155      O2157   1.298       .  A
C2155      C3734   1.497       .  S
C2156      C3751   1.482       .  S
C2158      C3905   1.475       .  S
Fe2159     O2175   2.076       .  S
Fe2159     O2165   2.079       .  S
Fe2159     O2172   2.073       .  S
Fe2159     O2164   2.052       .  S
Fe2159     O2170   1.974       .  S
Fe2160     O2163   2.056       .  S
Fe2160     O2167   2.015       .  S
Fe2160     O2171   2.082       .  S
Fe2160     O2176   2.047       .  S
Fe2160     O2170   1.936       .  S
Fe2161     O2179   2.119       .  S
Fe2161     O2166   2.072       .  S
Fe2161     O2173   2.090       .  S
Fe2161     O2162   2.109       .  S
Fe2161     O2170   1.943       .  S
O2162      C2169   1.278       .  A
O2163      C2177   1.271       .  A
O2164      C2169   1.262       .  A
O2165      C2168   1.278       .  A
O2166      C2178   1.268       .  A
O2167      C2180   1.253       .  A
C2168      O2173   1.274       .  A
C2168      C3765   1.498       .  S
C2169      C3821   1.467       .  S
O2171      C2174   1.276       .  A
O2172      C2174   1.276       .  A
C2174      C3720   1.485       .  S
O2175      C2180   1.265       .  A
O2176      C2178   1.263       .  A
C2177      O2179   1.286       .  A
C2177      C3706   1.487       .  S
C2178      C3692   1.467       .  S
C2180      C3835   1.465       .  S
Fe2181     O2197   2.080       .  S
Fe2181     O2187   2.034       .  S
Fe2181     O2194   2.079       .  S
Fe2181     O2186   2.070       .  S
Fe2181     O2192   1.960       .  S
Fe2182     O2185   2.046       .  S
Fe2182     O2189   2.074       .  S
Fe2182     O2192   1.946       .  S
Fe2183     O2201   2.074       .  S
Fe2183     O2188   2.107       .  S
Fe2183     O2195   2.084       .  S
Fe2183     O2184   2.095       .  S
Fe2183     O2192   1.964       .  S
O2184      C2191   1.275       .  A
O2185      C2199   1.266       .  A
O2186      C2191   1.278       .  A
O2187      C2190   1.263       .  A
O2188      C2200   1.281   1_556  A
O2189      C2202   1.270       .  A
C2190      O2195   1.272       .  A
C2190      C3639   1.456       .  S
C2191      C3664   1.499       .  S
O2193      C2196   1.262       .  A
C2196      C3622   1.483   1_655  S
O2197      C2202   1.274       .  A
C2199      O2201   1.270       .  A
C2199      C3650   1.463       .  S
C2202      C3678   1.478   1_655  S
Fe2203     O2219   2.077       .  S
Fe2203     O2209   2.039       .  S
Fe2203     O2216   2.070       .  S
Fe2203     O2208   2.064       .  S
Fe2203     O2214   1.955       .  S
Fe2204     O2207   2.054       .  S
Fe2204     O2211   2.055       .  S
Fe2204     O2215   2.044       .  S
Fe2204     O2220   2.053       .  S
Fe2204     O2214   1.940       .  S
Fe2205     O2223   2.086       .  S
Fe2205     O2210   2.100       .  S
Fe2205     O2217   2.077       .  S
Fe2205     O2206   2.095       .  S
Fe2205     O2214   1.968       .  S
O2206      C2213   1.275       .  A
O2207      C2221   1.268       .  A
O2208      C2213   1.272       .  A
O2209      C2212   1.267       .  A
O2210      C2222   1.278       .  A
O2211      C2224   1.265       .  A
C2212      O2217   1.274       .  A
C2212      C3594   1.457       .  S
C2213      C3667   1.504       .  S
O2215      C2218   1.269       .  A
O2216      C2218   1.267       .  A
C2218      C3583   1.465       .  S
O2219      C2224   1.272       .  A
O2220      C2222   1.268       .  A
C2221      O2223   1.273       .  A
C2221      C4087   1.481       .  S
C2222      C3566   1.479       .  S
C2224      C3695   1.484   1_655  S
Fe2225     O2241   2.067       .  S
Fe2225     O2231   2.042       .  S
Fe2225     O2238   2.083       .  S
Fe2225     O2230   2.067       .  S
Fe2225     O2236   1.958       .  S
Fe2226     O2229   2.059       .  S
Fe2226     O2233   2.065       .  S
Fe2226     O2237   2.040       .  S
Fe2226     O2242   2.069       .  S
Fe2226     O2236   1.938       .  S
Fe2227     O2245   2.093       .  S
Fe2227     O2232   2.091       .  S
Fe2227     O2239   2.085       .  S
Fe2227     O2228   2.089       .  S
Fe2227     O2236   1.963       .  S
O2228      C2235   1.272       .  A
O2229      C2243   1.266       .  A
O2230      C2235   1.274       .  A
O2231      C2234   1.268       .  A
O2232      C2244   1.279       .  A
O2233      C2246   1.270       .  A
C2234      O2239   1.278       .  A
C2234      C3541   1.460       .  S
C2235      C3555   1.499       .  S
O2237      C2240   1.267       .  A
O2238      C2240   1.272       .  A
C2240      C3527   1.478       .  S
O2241      C2246   1.271       .  A
O2242      C2244   1.274       .  A
C2243      O2245   1.270       .  A
C2243      C4003   1.485       .  S
C2244      C3510   1.478       .  S
C2246      C3748   1.483       .  S
Fe2247     O2263   2.065       .  S
Fe2247     O2253   2.035       .  S
Fe2247     O2260   2.075       .  S
Fe2247     O2252   2.062       .  S
Fe2247     O2258   1.959       .  S
Fe2248     O2251   2.048       .  S
Fe2248     O2255   2.054       .  S
Fe2248     O2258   1.949       .  S
Fe2249     O2267   2.076       .  S
Fe2249     O2254   2.114       .  S
Fe2249     O2261   2.098       .  S
Fe2249     O2250   2.098       .  S
Fe2249     O2258   1.962       .  S
O2250      C2257   1.276       .  A
O2251      C2265   1.263       .  A
O2252      C2257   1.277       .  A
O2253      C2256   1.262       .  A
O2254      C2266   1.284       .  A
O2255      C2268   1.266       .  A
C2256      O2261   1.276       .  A
C2256      C3468   1.465       .  S
C2257      C3552   1.501       .  S
O2259      C2262   1.267       .  A
C2262      C3454   1.477       .  S
O2263      C2268   1.271       .  A
C2265      O2267   1.271       .  A
C2265      C3485   1.475       .  S
C2268      C3496   1.459       .  S
Fe2269     O2285   2.083       .  S
Fe2269     O2275   2.062       .  S
Fe2269     O2282   2.066       .  S
Fe2269     O2274   2.043       .  S
Fe2269     O2280   1.960       .  S
Fe2270     O2273   2.072       .  S
Fe2270     O2277   2.039       .  S
Fe2270     O2281   2.071       .  S
Fe2270     O2286   2.054       .  S
Fe2270     O2280   1.939       .  S
Fe2271     O2289   2.099       .  S
Fe2271     O2276   2.100       .  S
Fe2271     O2283   2.120       .  S
Fe2271     O2280   1.958       .  S
O2272      C2279   1.275       .  A
O2273      C2287   1.274       .  A
O2275      C2278   1.277       .  A
O2276      C2288   1.275       .  A
O2277      C2290   1.265       .  A
C2278      O2283   1.280       .  A
C2278      C3426   1.502       .  S
C2279      C3398   1.461       .  S
O2281      C2284   1.272       .  A
O2282      C2284   1.272       .  A
C2284      C3653   1.476       .  S
O2285      C2290   1.268       .  A
O2286      C2288   1.265       .  A
C2287      O2289   1.281       .  A
C2287      C3387   1.488       .  S
C2288      C3370   1.485       .  S
C2290      C3415   1.480       .  S
Fe2291     O2307   2.084       .  S
Fe2291     O2297   2.063       .  S
Fe2291     O2304   2.046       .  S
Fe2291     O2296   2.040       .  S
Fe2291     O2302   1.954       .  S
Fe2292     O2295   2.069       .  S
Fe2292     O2299   2.034       .  S
Fe2292     O2303   2.084       .  S
Fe2292     O2308   2.054       .  S
Fe2292     O2302   1.936       .  S
Fe2293     O2311   2.099       .  S
Fe2293     O2298   2.100       .  S
Fe2293     O2305   2.107       .  S
Fe2293     O2302   1.953       .  S
O2294      C2301   1.277   1_554  A
O2295      C2309   1.275       .  A
O2297      C2300   1.275       .  A
O2298      C2310   1.274       .  A
O2299      C2312   1.262       .  A
C2300      O2305   1.277       .  A
C2300      C3429   1.507       .  S
C2301      C3328   1.460       .  S
O2303      C2306   1.274       .  A
O2304      C2306   1.269       .  A
C2306      C3482   1.475       .  S
O2307      C2312   1.270       .  A
O2308      C2310   1.266       .  A
C2309      O2311   1.282       .  A
C2309      C3356   1.483       .  S
C2310      C3317   1.492       .  S
C2312      C3342   1.479       .  S
Fe2313     O2329   2.062       .  S
Fe2313     O2319   2.049       .  S
Fe2313     O2326   2.073       .  S
Fe2313     O2318   2.063       .  S
Fe2313     O2324   1.951       .  S
Fe2314     O2317   2.059       .  S
Fe2314     O2321   2.086       .  S
Fe2314     O2324   1.945       .  S
Fe2315     O2333   2.078       .  S
Fe2315     O2320   2.097       .  S
Fe2315     O2327   2.084       .  S
Fe2315     O2316   2.088       .  S
Fe2315     O2324   1.970       .  S
O2316      C2323   1.263       .  A
O2317      C2331   1.261       .  A
O2318      C2323   1.266       .  A
O2319      C2322   1.275       .  A
O2320      C2332   1.289   1_556  A
O2321      C2334   1.275       .  A
C2322      O2327   1.284       .  A
C2322      C3303   1.454       .  S
C2323      C3272   1.504       .  S
O2325      C2328   1.262       .  A
C2328      C3286   1.478   1_455  S
O2329      C2334   1.269       .  A
C2331      O2333   1.263       .  A
C2331      C3258   1.497       .  S
C2334      C3373   1.500   1_455  S
Fe2335     O2351   2.059       .  S
Fe2335     O2341   2.030       .  S
Fe2335     O2348   2.071       .  S
Fe2335     O2340   2.072       .  S
Fe2335     O2346   1.945       .  S
Fe2336     O2339   2.063       .  S
Fe2336     O2343   2.068       .  S
Fe2336     O2347   2.063       .  S
Fe2336     O2352   2.053       .  S
Fe2336     O2346   1.952       .  S
Fe2337     O2355   2.080       .  S
Fe2337     O2342   2.126       .  S
Fe2337     O2349   2.100       .  S
Fe2337     O2338   2.097       .  S
Fe2337     O2346   1.977       .  S
O2338      C2345   1.280       .  A
O2339      C2353   1.268       .  A
O2340      C2345   1.271       .  A
O2341      C2344   1.265       .  A
O2342      C2354   1.283       .  A
O2343      C2356   1.267       .  A
C2344      O2349   1.274       .  A
C2344      C3230   1.459       .  S
C2345      C3275   1.511       .  S
O2347      C2350   1.271       .  A
O2348      C2350   1.274       .  A
C2350      C3216   1.474   1_455  S
O2351      C2356   1.265       .  A
O2352      C2354   1.269       .  A
C2353      O2355   1.272       .  A
C2353      C3723   1.474       .  S
C2354      C3804   1.496       .  S
C2356      C4017   1.470   1_455  S
Fe2357     O2373   2.069       .  S
Fe2357     O2363   2.094       .  S
Fe2357     O2370   2.086       .  S
Fe2357     O2362   2.010       .  S
Fe2357     O2368   1.999       .  S
Fe2358     O2361   2.054       .  S
Fe2358     O2365   2.031       .  S
Fe2358     O2369   2.073       .  S
Fe2358     O2374   2.065       .  S
Fe2358     O2368   1.967       .  S
Fe2359     O2377   2.131       .  S
Fe2359     O2364   2.061       .  S
Fe2359     O2371   2.079       .  S
Fe2359     O2368   1.961       .  S
O2360      C2367   1.279       .  A
O2361      C2375   1.271       .  A
O2363      C2366   1.280       .  A
O2364      C2376   1.264       .  A
O2365      C2378   1.256       .  A
C2366      O2371   1.271       .  A
C2366      C3160   1.501       .  S
C2367      C3191   1.462       .  S
O2369      C2372   1.273       .  A
O2370      C2372   1.276       .  A
C2372      C3261   1.488       .  S
O2373      C2378   1.260       .  A
O2374      C2376   1.265       .  A
C2375      O2377   1.289       .  A
C2375      C3174   1.493       .  S
C2376      C3681   1.489       .  S
C2378      C3202   1.491       .  S
Fe2379     O2395   2.076       .  S
Fe2379     O2385   2.060       .  S
Fe2379     O2392   2.071       .  S
Fe2379     O2384   2.048       .  S
Fe2379     O2390   1.959       .  S
Fe2380     O2383   2.073       .  S
Fe2380     O2387   2.031       .  S
Fe2380     O2391   2.089       .  S
Fe2380     O2396   2.040       .  S
Fe2380     O2390   1.935       .  S
Fe2381     O2399   2.106       .  S
Fe2381     O2386   2.075       .  S
Fe2381     O2393   2.101       .  S
Fe2381     O2390   1.954       .  S
O2382      C2389   1.277   1_554  A
O2383      C2397   1.273       .  A
O2385      C2388   1.275       .  A
O2386      C2398   1.270       .  A
O2387      C2400   1.260       .  A
C2388      O2393   1.275       .  A
C2388      C3163   1.495       .  S
C2389      C3118   1.462       .  S
O2391      C2394   1.275       .  A
O2392      C2394   1.274       .  A
C2394      C3149   1.483       .  S
O2395      C2400   1.267       .  A
O2396      C2398   1.264       .  A
C2397      O2399   1.282       .  A
C2397      C3104   1.488       .  S
C2398      C3499   1.469       .  S
C2400      C3132   1.473       .  S
Fe2401     O2417   2.057       .  S
Fe2401     O2407   2.085       .  S
Fe2401     O2414   2.062   1_455  S
Fe2401     O2406   2.013       .  S
Fe2401     O2412   1.932       .  S
Fe2402     O2413   2.087       .  S
Fe2402     O2418   2.057       .  S
Fe2402     O2412   1.932       .  S
Fe2403     O2421   2.144       .  S
Fe2403     O2408   2.086       .  S
Fe2403     O2415   2.081       .  S
Fe2403     O2404   2.131       .  S
Fe2403     O2412   1.959       .  S
O2404      C2411   1.283       .  A
O2406      C2411   1.261       .  A
O2407      C2410   1.270       .  A
O2408      C2420   1.271       .  A
O2409      C2422   1.274       .  A
C2410      O2415   1.275       .  A
C2410      C3076   1.513       .  S
C2411      C3580   1.477       .  S
O2413      C2416   1.272   1_455  A
O2414      C2416   1.265       .  A
C2416      C3090   1.475       .  S
O2418      C2420   1.267       .  A
C2419      O2421   1.290       .  A
C2420      C3846   1.488       .  S
C2422      C3597   1.477   1_455  S
Fe2423     O2439   2.090       .  S
Fe2423     O2429   2.058       .  S
Fe2423     O2436   2.065       .  S
Fe2423     O2428   2.037       .  S
Fe2423     O2434   1.967       .  S
Fe2424     O2427   2.057       .  S
Fe2424     O2431   2.030       .  S
Fe2424     O2435   2.079       .  S
Fe2424     O2440   2.051       .  S
Fe2424     O2434   1.938       .  S
Fe2425     O2443   2.124       .  S
Fe2425     O2430   2.102       .  S
Fe2425     O2437   2.129       .  S
Fe2425     O2426   2.099       .  S
Fe2425     O2434   1.954       .  S
O2426      C2433   1.276       .  A
O2427      C2441   1.269       .  A
O2428      C2433   1.261       .  A
O2429      C2432   1.277       .  A
O2430      C2442   1.278       .  A
O2431      C2444   1.258       .  A
C2432      O2437   1.283       .  A
C2432      C3079   1.502       .  S
C2433      C3625   1.464       .  S
O2435      C2438   1.271   1_455  A
O2436      C2438   1.272   1_455  A
C2438      C3065   1.469       .  S
O2439      C2444   1.265       .  A
O2440      C2442   1.268       .  A
C2441      O2443   1.284       .  A
C2441      C3177   1.499       .  S
C2442      C3048   1.484       .  S
C2444      C3636   1.477   1_455  S
Fe2445     O2461   2.066       .  S
Fe2445     O2451   2.068       .  S
Fe2445     O2458   2.063       .  S
Fe2445     O2450   2.032       .  S
Fe2445     O2456   1.931       .  S
Fe2446     O2457   2.063       .  S
Fe2446     O2462   2.066       .  S
Fe2446     O2456   1.942       .  S
Fe2447     O2465   2.148       .  S
Fe2447     O2452   2.070       .  S
Fe2447     O2459   2.089       .  S
Fe2447     O2448   2.109       .  S
Fe2447     O2456   1.957       .  S
O2448      C2455   1.276       .  A
O2450      C2455   1.264       .  A
O2451      C2454   1.273       .  A
O2452      C2464   1.270       .  A
O2453      C2466   1.270       .  A
C2454      O2459   1.281       .  A
C2454      C3037   1.505       .  S
C2455      C3219   1.466       .  S
O2457      C2460   1.270       .  A
O2458      C2460   1.270       .  A
C2460      C3793   1.463   1_655  S
O2462      C2464   1.268       .  A
C2463      O2465   1.287       .  A
C2464      C3020   1.470       .  S
C2466      C3233   1.470   1_655  S
Fe2467     O2483   2.077       .  S
Fe2467     O2473   2.056       .  S
Fe2467     O2480   2.060       .  S
Fe2467     O2472   2.037       .  S
Fe2467     O2478   1.971       .  S
Fe2468     O2471   2.049       .  S
Fe2468     O2475   2.029       .  S
Fe2468     O2479   2.079       .  S
Fe2468     O2484   2.047       .  S
Fe2468     O2478   1.943       .  S
Fe2469     O2487   2.111       .  S
Fe2469     O2474   2.083       .  S
Fe2469     O2481   2.113       .  S
Fe2469     O2470   2.089       .  S
Fe2469     O2478   1.956       .  S
O2470      C2477   1.274       .  A
O2471      C2485   1.269       .  A
O2472      C2477   1.260       .  A
O2473      C2476   1.276       .  A
O2474      C2486   1.272       .  A
O2475      C2488   1.257       .  A
C2476      O2481   1.279       .  A
C2476      C3034   1.497       .  S
C2477      C3289   1.459       .  S
O2479      C2482   1.274   1_655  A
O2480      C2482   1.273   1_655  A
C2482      C3009   1.476       .  S
O2483      C2488   1.263       .  A
O2484      C2486   1.265       .  A
C2485      O2487   1.283       .  A
C2485      C3384   1.485       .  S
C2486      C2992   1.468       .  S
C2488      C3300   1.478   1_655  S
Fe2489     O2505   2.053       .  S
Fe2489     O2495   2.056       .  S
Fe2489     O2502   2.076       .  S
Fe2489     O2494   2.049       .  S
Fe2489     O2500   1.952       .  S
Fe2490     O2493   2.047       .  S
Fe2490     O2497   2.089       .  S
Fe2490     O2501   2.026       .  S
Fe2490     O2506   2.074       .  S
Fe2490     O2500   1.929       .  S
Fe2491     O2509   2.092       .  S
Fe2491     O2496   2.092       .  S
Fe2491     O2492   2.113       .  S
Fe2491     O2500   1.944       .  S
O2492      C2499   1.277       .  A
O2493      C2507   1.265       .  A
O2494      C2499   1.271       .  A
O2496      C2508   1.278       .  A
O2497      C2510   1.276       .  A
C2498      O2503   1.272   1_556  A
C2498      C4059   1.458       .  S
C2499      C2981   1.497       .  S
O2501      C2504   1.258       .  A
O2502      C2504   1.266       .  A
C2504      C4042   1.477       .  S
O2505      C2510   1.272       .  A
O2506      C2508   1.274       .  A
C2507      O2509   1.276       .  A
C2507      C3093   1.485       .  S
C2508      C3569   1.481       .  S
C2510      C3023   1.487       .  S
Fe2511     O2527   2.071       .  S
Fe2511     O2517   2.058       .  S
Fe2511     O2524   2.082       .  S
Fe2511     O2516   2.066       .  S
Fe2511     O2522   1.949       .  S
Fe2512     O2515   2.036       .  S
Fe2512     O2519   2.089       .  S
Fe2512     O2523   2.027       .  S
Fe2512     O2528   2.075       .  S
Fe2512     O2522   1.931       .  S
Fe2513     O2531   2.080       .  S
Fe2513     O2518   2.086       .  S
Fe2513     O2514   2.092       .  S
Fe2513     O2522   1.947       .  S
O2514      C2521   1.273       .  A
O2515      C2529   1.263       .  A
O2516      C2521   1.275       .  A
O2518      C2530   1.277       .  A
O2519      C2532   1.274       .  A
C2520      O2525   1.273       .  A
C2520      C3975   1.463       .  S
C2521      C2978   1.490       .  S
O2523      C2526   1.259       .  A
O2524      C2526   1.271       .  A
C2526      C3958   1.482       .  S
O2527      C2532   1.274       .  A
O2528      C2530   1.273       .  A
C2529      O2531   1.273       .  A
C2529      C2950   1.474       .  S
C2530      C3513   1.478       .  S
C2532      C2964   1.488       .  S
Fe2533     O2549   2.071       .  S
Fe2533     O2539   2.033       .  S
Fe2533     O2546   2.081       .  S
Fe2533     O2538   2.069       .  S
Fe2533     O2544   1.959       .  S
Fe2534     O2537   2.049       .  S
Fe2534     O2541   2.071       .  S
Fe2534     O2545   2.038       .  S
Fe2534     O2550   2.067       .  S
Fe2534     O2544   1.946       .  S
Fe2535     O2553   2.078       .  S
Fe2535     O2540   2.095       .  S
Fe2535     O2547   2.084       .  S
Fe2535     O2536   2.081       .  S
Fe2535     O2544   1.963       .  S
O2536      C2543   1.272       .  A
O2537      C2551   1.265       .  A
O2538      C2543   1.278       .  A
O2539      C2542   1.264       .  A
O2540      C2552   1.277       .  A
O2541      C2554   1.271       .  A
C2542      O2547   1.275       .  A
C2542      C2936   1.461       .  S
C2543      C2908   1.498       .  S
O2545      C2548   1.265       .  A
O2546      C2548   1.270       .  A
C2548      C2922   1.478       .  S
O2549      C2554   1.272       .  A
O2550      C2552   1.271       .  A
C2551      O2553   1.272       .  A
C2551      C3779   1.486       .  S
C2552      C3877   1.481       .  S
C2554      C3944   1.483       .  S
Fe2555     O2571   2.081       .  S
Fe2555     O2561   2.030       .  S
Fe2555     O2568   2.045       .  S
Fe2555     O2560   2.049       .  S
Fe2555     O2566   1.968       .  S
Fe2556     O2559   2.063       .  S
Fe2556     O2563   2.068       .  S
Fe2556     O2566   1.936       .  S
Fe2557     O2575   2.082       .  S
Fe2557     O2562   2.118       .  S
Fe2557     O2569   2.101       .  S
Fe2557     O2558   2.102       .  S
Fe2557     O2566   1.963       .  S
O2558      C2565   1.271       .  A
O2559      C2573   1.263       .  A
O2560      C2565   1.267       .  A
O2561      C2564   1.260       .  A
O2562      C2574   1.290       .  A
O2563      C2576   1.272       .  A
C2564      O2569   1.282       .  A
C2564      C2894   1.453       .  S
C2565      C2911   1.498       .  S
O2567      C2570   1.267       .  A
C2570      C2880   1.463       .  S
O2571      C2576   1.274       .  A
C2573      O2575   1.267       .  A
C2573      C3146   1.497       .  S
C2576      C3314   1.494       .  S
Fe2577     O2593   2.065       .  S
Fe2577     O2583   2.055       .  S
Fe2577     O2590   2.067       .  S
Fe2577     O2582   2.051       .  S
Fe2577     O2588   1.951       .  S
Fe2578     O2581   2.031       .  S
Fe2578     O2585   2.069       .  S
Fe2578     O2589   2.024       .  S
Fe2578     O2594   2.072       .  S
Fe2578     O2588   1.931       .  S
Fe2579     O2597   2.099       .  S
Fe2579     O2584   2.101       .  S
Fe2579     O2591   2.078       .  S
Fe2579     O2580   2.113       .  S
Fe2579     O2588   1.948       .  S
O2580      C2587   1.277       .  A
O2581      C2595   1.259       .  A
O2582      C2587   1.270       .  A
O2583      C2586   1.266       .  A
O2584      C2596   1.280       .  A
O2585      C2598   1.271       .  A
C2586      O2591   1.275       .  A
C2586      C3135   1.455       .  S
C2587      C2838   1.500       .  S
O2589      C2592   1.260       .  A
O2590      C2592   1.268       .  A
C2592      C3121   1.463       .  S
O2593      C2598   1.273       .  A
O2594      C2596   1.272       .  A
C2595      O2597   1.277       .  A
C2595      C2827   1.486       .  S
C2596      C2869   1.484       .  S
C2598      C2852   1.476       .  S
Fe2599     O2615   2.070       .  S
Fe2599     O2605   2.035       .  S
Fe2599     O2612   2.066       .  S
Fe2599     O2604   2.075       .  S
Fe2599     O2610   1.962       .  S
Fe2600     O2603   2.052       .  S
Fe2600     O2607   2.074       .  S
Fe2600     O2611   2.040       .  S
Fe2600     O2616   2.093       .  S
Fe2600     O2610   1.951       .  S
Fe2601     O2619   2.055       .  S
Fe2601     O2606   2.104       .  S
Fe2601     O2613   2.094       .  S
Fe2601     O2602   2.070       .  S
Fe2601     O2610   1.970       .  S
O2602      C2609   1.264       .  A
O2603      C2617   1.259       .  A
O2604      C2609   1.273       .  A
O2605      C2608   1.267       .  A
O2606      C2618   1.286       .  A
O2607      C2620   1.272       .  A
C2608      O2613   1.280       .  A
C2608      C3205   1.461       .  S
C2609      C2841   1.495       .  S
O2611      C2614   1.267       .  A
O2612      C2614   1.270       .  A
C2614      C3188   1.481       .  S
O2615      C2620   1.272       .  A
O2616      C2618   1.282       .  A
C2617      O2619   1.261       .  A
C2617      C3006   1.475       .  S
C2618      C3244   1.492       .  S
C2620      C3051   1.496       .  S
Fe2621     O2637   2.061       .  S
Fe2621     O2627   2.057       .  S
Fe2621     O2634   2.062       .  S
Fe2621     O2626   2.043       .  S
Fe2621     O2632   1.966       .  S
Fe2622     O2633   2.066       .  S
Fe2622     O2638   2.064       .  S
Fe2622     O2632   1.940       .  S
Fe2623     O2641   2.115       .  S
Fe2623     O2628   2.084       .  S
Fe2623     O2635   2.113       .  S
Fe2623     O2624   2.095       .  S
Fe2623     O2632   1.954       .  S
O2624      C2631   1.279       .  A
O2625      C2639   1.279       .  A
O2626      C2631   1.264       .  A
O2627      C2630   1.271       .  A
O2628      C2640   1.271       .  A
O2629      C2642   1.269       .  A
C2630      O2635   1.277       .  A
C2630      C2810   1.512       .  S
C2631      C2925   1.462       .  S
O2633      C2636   1.271       .  A
O2634      C2636   1.273       .  A
C2636      C3863   1.470       .  S
O2638      C2640   1.266       .  A
C2639      C3986   1.496       .  S
C2640      C2967   1.488       .  S
C2642      C2939   1.474       .  S
Fe2643     O2659   2.067       .  S
Fe2643     O2649   2.104       .  S
Fe2643     O2656   2.069       .  S
Fe2643     O2648   2.009       .  S
Fe2643     O2654   1.941       .  S
Fe2644     O2647   2.039       .  S
Fe2644     O2651   2.038       .  S
Fe2644     O2655   2.077       .  S
Fe2644     O2660   2.046       .  S
Fe2644     O2654   1.932       .  S
Fe2645     O2663   2.138       .  S
Fe2645     O2650   2.081       .  S
Fe2645     O2657   2.070       .  S
Fe2645     O2646   2.129       .  S
Fe2645     O2654   1.952       .  S
O2646      C2653   1.285       .  A
O2647      C2661   1.270       .  A
O2648      C2653   1.261       .  A
O2649      C2652   1.276       .  A
O2650      C2662   1.270       .  A
O2651      C2664   1.265       .  A
C2652      O2657   1.270       .  A
C2652      C2813   1.503       .  S
C2653      C2883   1.480       .  S
O2655      C2658   1.273       .  A
O2656      C2658   1.268       .  A
C2658      C2824   1.475       .  S
O2659      C2664   1.277       .  A
O2660      C2662   1.263       .  A
C2661      O2663   1.288       .  A
C2661      C3359   1.484       .  S
C2662      C2799   1.475       .  S
C2664      C2897   1.483       .  S
Fe2665     O2681   2.070       .  S
Fe2665     O2671   2.030       .  S
Fe2665     O2678   2.063       .  S
Fe2665     O2670   2.063       .  S
Fe2665     O2676   1.962       .  S
Fe2666     O2669   2.052       .  S
Fe2666     O2673   2.071       .  S
Fe2666     O2677   2.042       .  S
Fe2666     O2682   2.067       .  S
Fe2666     O2676   1.949       .  S
Fe2667     O2685   2.071       .  S
Fe2667     O2672   2.103       .  S
Fe2667     O2679   2.092       .  S
Fe2667     O2668   2.092       .  S
Fe2667     O2676   1.966       .  S
O2668      C2675   1.273       .  A
O2669      C2683   1.265       .  A
O2670      C2675   1.276       .  A
O2671      C2674   1.261       .  A
O2672      C2684   1.282       .  A
O2673      C2686   1.274       .  A
C2674      O2679   1.275       .  A
C2674      C3412   1.461       .  S
C2675      C2782   1.493       .  S
O2677      C2680   1.265       .  A
O2678      C2680   1.264       .  A
C2680      C3401   1.476       .  S
O2681      C2686   1.274       .  A
O2682      C2684   1.274       .  A
C2683      O2685   1.268       .  A
C2683      C3062   1.476       .  S
C2684      C3611   1.486       .  S
C2686      C2995   1.485       .  S
Fe2687     O2703   2.062       .  S
Fe2687     O2693   2.044       .  S
Fe2687     O2700   2.065       .  S
Fe2687     O2692   2.062       .  S
Fe2687     O2698   1.960       .  S
Fe2688     O2691   2.056       .  S
Fe2688     O2695   2.073       .  S
Fe2688     O2699   2.039       .  S
Fe2688     O2704   2.064       .  S
Fe2688     O2698   1.944       .  S
Fe2689     O2707   2.080       .  S
Fe2689     O2694   2.101       .  S
Fe2689     O2701   2.082       .  S
Fe2689     O2690   2.100       .  S
Fe2689     O2698   1.964       .  S
O2690      C2697   1.274       .  A
O2691      C2705   1.267       .  A
O2692      C2697   1.271       .  A
O2693      C2696   1.266       .  A
O2694      C2706   1.281       .  A
O2695      C2708   1.271       .  A
C2696      O2701   1.275       .  A
C2696      C3345   1.457       .  S
C2697      C2785   1.503       .  S
O2699      C2702   1.265       .  A
O2700      C2702   1.267       .  A
C2702      C3331   1.481       .  S
O2703      C2708   1.272       .  A
O2704      C2706   1.272       .  A
C2705      O2707   1.270       .  A
C2705      C2768   1.491       .  S
C2706      C3440   1.482       .  S
C2708      C2796   1.470       .  S
Fe2709     O2725   2.071       .  S
Fe2709     O2715   2.060       .  S
Fe2709     O2722   2.046       .  S
Fe2709     O2714   2.032       .  S
Fe2709     O2720   1.962       .  S
Fe2710     O2721   2.067       .  S
Fe2710     O2726   2.055       .  S
Fe2710     O2720   1.951       .  S
Fe2711     O2729   2.115       .  S
Fe2711     O2716   2.079       .  S
Fe2711     O2723   2.099       .  S
Fe2711     O2712   2.103       .  S
Fe2711     O2720   1.963       .  S
O2712      C2719   1.280       .  A
O2714      C2719   1.264       .  A
O2715      C2718   1.274       .  A
O2716      C2728   1.270       .  A
O2717      C2730   1.270       .  A
C2718      O2723   1.274       .  A
C2718      C2757   1.504       .  S
C2719      C3524   1.467       .  S
O2721      C2724   1.270       .  A
O2722      C2724   1.268       .  A
C2724      C2953   1.468       .  S
O2726      C2728   1.265       .  A
C2727      O2729   1.286   1_554  A
C2728      C3933   1.492       .  S
C2730      C3538   1.471       .  S
Fe2731     O2747   2.086       .  S
Fe2731     O2737   2.069       .  S
Fe2731     O2744   2.060       .  S
Fe2731     O2736   2.047       .  S
Fe2731     O2742   1.966       .  S
Fe2732     O2735   2.069       .  S
Fe2732     O2739   2.036       .  S
Fe2732     O2743   2.069       .  S
Fe2732     O2748   2.050       .  S
Fe2732     O2742   1.937       .  S
Fe2733     O2751   2.113       .  S
Fe2733     O2738   2.074       .  S
Fe2733     O2745   2.089       .  S
Fe2733     O2734   2.101       .  S
Fe2733     O2742   1.958       .  S
O2734      C2741   1.281       .  A
O2735      C2749   1.274       .  A
O2736      C2741   1.265       .  A
O2737      C2740   1.276       .  A
O2738      C2750   1.266       .  A
O2739      C2752   1.264       .  A
C2740      O2745   1.272       .  A
C2740      C2754   1.501       .  S
C2741      C3457   1.465       .  S
O2743      C2746   1.270       .  A
O2744      C2746   1.271       .  A
C2746      C2771   1.471       .  S
O2747      C2752   1.273       .  A
O2748      C2750   1.263       .  A
C2749      O2751   1.287       .  A
C2749      C3107   1.490       .  S
C2750      C2855   1.483       .  S
C2752      C3471   1.483       .  S
C2753      C2754   1.406       .  A
C2753      C2758   1.411       .  A
C2753      H2760   1.084       .  S
C2754      C2755   1.417       .  A
C2755      C2756   1.417       .  A
C2755      N2762   1.437       .  S
C2756      C2757   1.409       .  A
C2756      H2761   1.083       .  S
C2757      C2758   1.416       .  A
C2758      N2759   1.432       .  S
N2759      H2763   1.046       .  S
N2759      H2764   1.045       .  S
N2762      H2765   1.046       .  S
N2762      H2766   1.046       .  S
C2767      C2768   1.410       .  A
C2767      C2772   1.404       .  A
C2767      H2774   1.084       .  S
C2768      C2769   1.420       .  A
C2769      C2770   1.404       .  A
C2769      N2776   1.437       .  S
C2770      C2771   1.399       .  A
C2770      H2775   1.084       .  S
C2771      C2772   1.404       .  A
C2772      N2773   1.432       .  S
N2773      H2777   1.046       .  S
N2773      H2778   1.045       .  S
N2776      H2779   1.043       .  S
N2776      H2780   1.046       .  S
C2781      C2782   1.404       .  A
C2781      C2786   1.403       .  A
C2781      H2788   1.084       .  S
C2782      C2783   1.411       .  A
C2783      C2784   1.413       .  A
C2783      N2790   1.432       .  S
C2784      C2785   1.411       .  A
C2784      H2789   1.084       .  S
C2785      C2786   1.423       .  A
C2786      N2787   1.432       .  S
N2787      H2791   1.045       .  S
N2787      H2792   1.044       .  S
N2790      H2793   1.046       .  S
N2790      H2794   1.046       .  S
C2795      C2796   1.403       .  A
C2795      C2800   1.402       .  A
C2795      H2802   1.085       .  S
C2796      C2797   1.407       .  A
C2797      C2798   1.398       .  A
C2797      N2804   1.432       .  S
C2798      C2799   1.408       .  A
C2798      H2803   1.084       .  S
C2799      C2800   1.419       .  A
C2800      N2801   1.439       .  S
N2801      H2805   1.045       .  S
N2801      H2806   1.041       .  S
N2804      H2807   1.046       .  S
N2804      H2808   1.045       .  S
C2809      C2810   1.416       .  A
C2809      C2814   1.413   1_565  A
C2809      H2816   1.083       .  S
C2810      C2811   1.416   1_565  A
C2811      C2812   1.409       .  A
C2811      N2818   1.433       .  S
C2812      C2813   1.408       .  A
C2812      H2817   1.081       .  S
C2813      C2814   1.414       .  A
C2814      N2815   1.431       .  S
N2815      H2819   1.045       .  S
N2815      H2820   1.046       .  S
N2818      H2821   1.046       .  S
N2818      H2822   1.046       .  S
C2823      C2824   1.398       .  A
C2823      C2828   1.401       .  A
C2823      H2830   1.084       .  S
C2824      C2825   1.412       .  A
C2825      C2826   1.400       .  A
C2825      N2832   1.435       .  S
C2826      C2827   1.401       .  A
C2826      H2831   1.084       .  S
C2827      C2828   1.426       .  A
C2828      N2829   1.433       .  S
N2829      H2833   1.045       .  S
N2829      H2834   1.045       .  S
N2832      H2835   1.044       .  S
N2832      H2836   1.046       .  S
C2837      C2838   1.408       .  A
C2837      C2842   1.410       .  A
C2837      H2844   1.084       .  S
C2838      C2839   1.416       .  A
C2839      C2840   1.407       .  A
C2839      N2846   1.432       .  S
C2840      C2841   1.404       .  A
C2840      H2845   1.084       .  S
C2841      C2842   1.420       .  A
C2842      N2843   1.432       .  S
N2843      H2847   1.045       .  S
N2843      H2848   1.044       .  S
N2846      H2849   1.045       .  S
N2846      H2850   1.046       .  S
C2851      C2852   1.404       .  A
C2851      C2856   1.404       .  A
C2851      H2858   1.084       .  S
C2852      C2853   1.413       .  A
C2853      C2854   1.399       .  A
C2853      N2860   1.433       .  S
C2854      C2855   1.407       .  A
C2854      H2859   1.084       .  S
C2855      C2856   1.413       .  A
C2856      N2857   1.438       .  S
N2857      H2861   1.046       .  S
N2857      H2862   1.046       .  S
N2860      H2863   1.046       .  S
N2860      H2864   1.045       .  S
C2865      C2866   1.404       .  A
C2865      C2870   1.410       .  A
C2865      H2872   1.084       .  S
C2866      C2867   1.411       .  A
C2867      C2868   1.411       .  A
C2867      N2874   1.432       .  S
C2868      C2869   1.404       .  A
C2868      H2873   1.084       .  S
C2869      C2870   1.411       .  A
C2870      N2871   1.432       .  S
N2871      H2875   1.046       .  S
N2871      H2876   1.045       .  S
N2874      H2877   1.046       .  S
N2874      H2878   1.045       .  S
C2879      C2880   1.391       .  A
C2879      C2884   1.396       .  A
C2879      H2886   1.084       .  S
C2880      C2881   1.416       .  A
C2881      C2882   1.401       .  A
C2882      C2883   1.400       .  A
C2882      H2887   1.084       .  S
C2883      C2884   1.425       .  A
C2884      N2885   1.440       .  S
N2885      H2889   1.046       .  S
N2885      H2890   1.045       .  S
N2888      H2891   1.045       .  S
N2888      H2892   1.044       .  S
C2893      C2894   1.396       .  A
C2893      C2898   1.396       .  A
C2893      H2900   1.086       .  S
C2894      C2895   1.418       .  A
C2895      C2896   1.404       .  A
C2895      N2902   1.438       .  S
C2896      C2897   1.404       .  A
C2896      H2901   1.083       .  S
C2897      C2898   1.420       .  A
C2898      N2899   1.434       .  S
N2899      H2903   1.046       .  S
N2899      H2904   1.045       .  S
N2902      H2905   1.045       .  S
N2902      H2906   1.045       .  S
C2907      C2908   1.405       .  A
C2907      C2912   1.409   1_565  A
C2907      H2914   1.084       .  S
C2908      C2909   1.416       .  A
C2909      C2910   1.412   1_565  A
C2909      N2916   1.432       .  S
C2910      C2911   1.406       .  A
C2910      H2915   1.084       .  S
C2911      C2912   1.417       .  A
C2912      N2913   1.433       .  S
N2913      H2917   1.045   1_545  S
N2913      H2918   1.046       .  S
N2916      H2919   1.046       .  S
N2916      H2920   1.046       .  S
C2921      C2922   1.408       .  A
C2921      C2926   1.396       .  A
C2921      H2928   1.084       .  S
C2922      C2923   1.408       .  A
C2923      C2924   1.405       .  A
C2923      N2930   1.432       .  S
C2924      C2925   1.407       .  A
C2924      H2929   1.085       .  S
C2925      C2926   1.409       .  A
C2926      N2927   1.434       .  S
N2927      H2931   1.045       .  S
N2927      H2932   1.045       .  S
N2930      H2933   1.046       .  S
N2930      H2934   1.046       .  S
C2935      C2936   1.410       .  A
C2935      C2940   1.406       .  A
C2935      H2942   1.084       .  S
C2936      C2937   1.404       .  A
C2937      C2938   1.393       .  A
C2937      N2944   1.433       .  S
C2938      C2939   1.409       .  A
C2938      H2943   1.084       .  S
C2939      C2940   1.408       .  A
C2940      N2941   1.437       .  S
N2941      H2945   1.045       .  S
N2944      H2947   1.046       .  S
N2944      H2948   1.045       .  S
C2949      C2950   1.402       .  A
C2949      C2954   1.397       .  A
C2949      H2956   1.084       .  S
C2950      C2951   1.415       .  A
C2951      C2952   1.405       .  A
C2951      N2958   1.438       .  S
C2952      C2953   1.402       .  A
C2952      H2957   1.084       .  S
C2953      C2954   1.411       .  A
C2954      N2955   1.439       .  S
N2955      H2959   1.046       .  S
N2955      H2960   1.046       .  S
N2958      H2961   1.046       .  S
N2958      H2962   1.046       .  S
C2963      C2964   1.408       .  A
C2963      C2968   1.409       .  A
C2963      H2970   1.084       .  S
C2964      C2965   1.416       .  A
C2965      C2966   1.399       .  A
C2965      N2972   1.433       .  S
C2966      C2967   1.405       .  A
C2966      H2971   1.084       .  S
C2967      C2968   1.411       .  A
C2968      N2969   1.432       .  S
N2969      H2973   1.046       .  S
N2969      H2974   1.046       .  S
N2972      H2975   1.046       .  S
N2972      H2976   1.045       .  S
C2977      C2978   1.402       .  A
C2977      C2982   1.402   1_556  A
C2977      H2984   1.084       .  S
C2979      C2980   1.411       .  A
C2979      N2986   1.432       .  S
C2980      C2981   1.410       .  A
C2980      H2985   1.083       .  S
C2982      N2983   1.433       .  S
N2983      H2987   1.046       .  S
N2983      H2988   1.046       .  S
N2986      H2989   1.046       .  S
N2986      H2990   1.044       .  S
C2991      C2992   1.403       .  A
C2991      C2996   1.405       .  A
C2991      H2998   1.084       .  S
C2992      C2993   1.406       .  A
C2993      C2994   1.397       .  A
C2993      N3000   1.433       .  S
C2994      C2995   1.410       .  A
C2994      H2999   1.084       .  S
C2995      C2996   1.412       .  A
C2996      N2997   1.433       .  S
N2997      H3001   1.045       .  S
N2997      H3002   1.046       .  S
N3000      H3003   1.045       .  S
N3000      H3004   1.046       .  S
C3005      C3006   1.403       .  A
C3005      C3010   1.393       .  A
C3005      H3012   1.084       .  S
C3006      C3007   1.411       .  A
C3007      C3008   1.407       .  A
C3007      N3014   1.438       .  S
C3008      C3009   1.406       .  A
C3008      H3013   1.084       .  S
C3009      C3010   1.414       .  A
C3010      N3011   1.433       .  S
N3011      H3015   1.046       .  S
N3011      H3016   1.045       .  S
N3014      H3017   1.046       .  S
N3014      H3018   1.046       .  S
C3019      C3020   1.401       .  A
C3019      C3024   1.399       .  A
C3019      H3026   1.083       .  S
C3020      C3021   1.408       .  A
C3021      C3022   1.407       .  A
C3021      N3028   1.438       .  S
C3022      C3023   1.410       .  A
C3022      H3027   1.083       .  S
C3023      C3024   1.414       .  A
C3024      N3025   1.433       .  S
N3025      H3029   1.046       .  S
N3025      H3030   1.046       .  S
N3028      H3031   1.046       .  S
N3028      H3032   1.046       .  S
C3033      C3034   1.404       .  A
C3033      C3038   1.407   1_545  A
C3033      H3040   1.084       .  S
C3034      C3035   1.415       .  A
C3035      C3036   1.420   1_545  A
C3035      N3042   1.436       .  S
C3036      C3037   1.411       .  A
C3036      H3041   1.083       .  S
C3037      C3038   1.420       .  A
C3038      N3039   1.439       .  S
N3039      H3043   1.046       .  S
N3039      H3044   1.046       .  S
N3042      H3045   1.045       .  S
N3042      H3046   1.046       .  S
C3047      C3048   1.405       .  A
C3047      C3052   1.411       .  A
C3047      H3054   1.084       .  S
C3048      C3049   1.412       .  A
C3049      C3050   1.398       .  A
C3049      N3056   1.432       .  S
C3050      C3051   1.408       .  A
C3050      H3055   1.083       .  S
C3051      C3052   1.418       .  A
C3052      N3053   1.438       .  S
N3053      H3057   1.046       .  S
N3053      H3058   1.046       .  S
N3056      H3059   1.046       .  S
N3056      H3060   1.044       .  S
C3061      C3062   1.406       .  A
C3061      C3066   1.407       .  A
C3061      H3068   1.084       .  S
C3062      C3063   1.408       .  A
C3063      C3064   1.400       .  A
C3063      N3070   1.433       .  S
C3064      C3065   1.402       .  A
C3064      H3069   1.083       .  S
C3065      C3066   1.406       .  A
C3066      N3067   1.437       .  S
N3067      H3071   1.045       .  S
N3067      H3072   1.046   1_655  S
N3070      H3073   1.046       .  S
N3070      H3074   1.046       .  S
C3075      C3076   1.414       .  A
C3075      C3080   1.419       .  A
C3075      H3082   1.083       .  S
C3076      C3077   1.425       .  A
C3077      C3078   1.405       .  A
C3077      N3084   1.433       .  S
C3078      C3079   1.406       .  A
C3078      H3083   1.084       .  S
C3079      C3080   1.409       .  A
C3080      N3081   1.431       .  S
N3081      H3085   1.046       .  S
N3081      H3086   1.045       .  S
N3084      H3087   1.046       .  S
N3084      H3088   1.042       .  S
C3089      C3090   1.400       .  A
C3089      C3094   1.412       .  A
C3089      H3096   1.084       .  S
C3090      C3091   1.411       .  A
C3091      C3092   1.399       .  A
C3091      N3098   1.437       .  S
C3092      C3093   1.401       .  A
C3092      H3097   1.084       .  S
C3093      C3094   1.419       .  A
C3094      N3095   1.437       .  S
N3095      H3099   1.046       .  S
N3095      H3100   1.046       .  S
N3098      H3101   1.045       .  S
C3103      C3104   1.407       .  A
C3103      C3108   1.416       .  A
C3103      H3110   1.084       .  S
C3104      C3105   1.412       .  A
C3105      C3106   1.412       .  A
C3105      N3112   1.439       .  S
C3106      C3107   1.407       .  A
C3106      H3111   1.084       .  S
C3107      C3108   1.412       .  A
C3108      N3109   1.437       .  S
N3109      H3113   1.046       .  S
N3109      H3114   1.045       .  S
N3112      H3115   1.046       .  S
N3112      H3116   1.046       .  S
C3117      C3118   1.397       .  A
C3117      C3122   1.400       .  A
C3117      H3124   1.084       .  S
C3118      C3119   1.414       .  A
C3119      C3120   1.394       .  A
C3119      N3126   1.429       .  S
C3120      C3121   1.394       .  A
C3120      H3125   1.084       .  S
C3121      C3122   1.415       .  A
C3122      N3123   1.433       .  S
N3123      H3127   1.046       .  S
N3123      H3128   1.046       .  S
N3126      H3129   1.046       .  S
N3126      H3130   1.046       .  S
C3131      C3132   1.403       .  A
C3131      C3136   1.403       .  A
C3131      H3138   1.084       .  S
C3132      C3133   1.416       .  A
C3133      C3134   1.396       .  A
C3133      N3140   1.433       .  S
C3134      C3135   1.395       .  A
C3134      H3139   1.085       .  S
C3135      C3136   1.408       .  A
C3136      N3137   1.432       .  S
N3137      H3141   1.045       .  S
N3137      H3142   1.045       .  S
N3140      H3143   1.046       .  S
N3140      H3144   1.046       .  S
C3145      C3146   1.409       .  A
C3145      C3150   1.409       .  A
C3145      H3152   1.083       .  S
C3146      C3147   1.415       .  A
C3147      C3148   1.407       .  A
C3147      N3154   1.432       .  S
C3148      C3149   1.403       .  A
C3148      H3153   1.084       .  S
C3149      C3150   1.412       .  A
C3150      N3151   1.438       .  S
N3151      H3156   1.045       .  S
N3154      H3157   1.046       .  S
N3154      H3158   1.046       .  S
C3159      C3160   1.397       .  A
C3159      C3164   1.417       .  A
C3159      H3166   1.083       .  S
C3161      C3162   1.405       .  A
C3161      N3168   1.432       .  S
C3162      C3163   1.405       .  A
C3162      H3167   1.084       .  S
C3164      N3165   1.440       .  S
N3165      H3169   1.046       .  S
N3165      H3170   1.042       .  S
N3168      H3171   1.046       .  S
N3168      H3172   1.046       .  S
C3173      C3174   1.410       .  A
C3173      C3178   1.419       .  A
C3173      H3180   1.084       .  S
C3174      C3175   1.408       .  A
C3175      C3176   1.411       .  A
C3175      N3182   1.433       .  S
C3176      C3177   1.410       .  A
C3176      H3181   1.084       .  S
C3177      C3178   1.412       .  A
C3178      N3179   1.436       .  S
N3179      H3183   1.046       .  S
N3179      H3184   1.045       .  S
N3182      H3185   1.046       .  S
N3182      H3186   1.045       .  S
C3187      C3188   1.412       .  A
C3187      C3192   1.401       .  A
C3187      H3194   1.084       .  S
C3188      C3189   1.410       .  A
C3189      C3190   1.405       .  A
C3189      N3196   1.438       .  S
C3190      C3191   1.408       .  A
C3190      H3195   1.084       .  S
C3191      C3192   1.403       .  A
C3192      N3193   1.439       .  S
N3193      H3197   1.046       .  S
N3193      H3198   1.046       .  S
N3196      H3199   1.045       .  S
N3196      H3200   1.046       .  S
C3201      C3202   1.407       .  A
C3201      C3206   1.396       .  A
C3201      H3208   1.084       .  S
C3202      C3203   1.416       .  A
C3203      C3204   1.410       .  A
C3203      N3210   1.437       .  S
C3204      C3205   1.405       .  A
C3204      H3209   1.084       .  S
C3205      C3206   1.411       .  A
C3206      N3207   1.438       .  S
N3207      H3211   1.046       .  S
N3207      H3212   1.045       .  S
N3210      H3213   1.045       .  S
N3210      H3214   1.046       .  S
C3215      C3216   1.409       .  A
C3215      C3220   1.404       .  A
C3215      H3222   1.082       .  S
C3216      C3217   1.410       .  A
C3217      C3218   1.402       .  A
C3217      N3224   1.437       .  S
C3218      C3219   1.406       .  A
C3218      H3223   1.083       .  S
C3219      C3220   1.401       .  A
C3220      N3221   1.438       .  S
N3221      H3225   1.045       .  S
N3221      H3226   1.046       .  S
N3224      H3227   1.043   1_655  S
N3224      H3228   1.046       .  S
C3229      C3230   1.408       .  A
C3229      C3234   1.408       .  A
C3229      H3236   1.083       .  S
C3230      C3231   1.398       .  A
C3231      C3232   1.396       .  A
C3231      N3238   1.433       .  S
C3232      C3233   1.407       .  A
C3232      H3237   1.083       .  S
C3233      C3234   1.404       .  A
N3235      H3239   1.046       .  S
N3235      H3240   1.045       .  S
N3238      H3241   1.046       .  S
N3238      H3242   1.045       .  S
C3243      C3244   1.405       .  A
C3243      C3248   1.413       .  A
C3243      H3250   1.084       .  S
C3244      C3245   1.409       .  A
C3245      C3246   1.410       .  A
C3245      N3252   1.432       .  S
C3246      C3247   1.405       .  A
C3246      H3251   1.084       .  S
C3247      C3248   1.420       .  A
C3248      N3249   1.437       .  S
N3249      H3253   1.046       .  S
N3249      H3254   1.045       .  S
N3252      H3255   1.046       .  S
N3252      H3256   1.045       .  S
C3257      C3258   1.406       .  A
C3257      C3262   1.406       .  A
C3257      H3264   1.083       .  S
C3258      C3259   1.420       .  A
C3259      C3260   1.411       .  A
C3259      N3266   1.437       .  S
C3260      C3261   1.403       .  A
C3260      H3265   1.084       .  S
C3261      C3262   1.414       .  A
C3262      N3263   1.439       .  S
N3263      H3267   1.046       .  S
N3263      H3268   1.046       .  S
N3266      H3269   1.045       .  S
N3266      H3270   1.046       .  S
C3271      C3272   1.404       .  A
C3271      C3276   1.408   1_545  A
C3271      H3278   1.084       .  S
C3272      C3273   1.421       .  A
C3273      C3274   1.416   1_545  A
C3273      N3280   1.432       .  S
C3274      C3275   1.411       .  A
C3274      H3279   1.083       .  S
C3275      C3276   1.420       .  A
C3276      N3277   1.433       .  S
N3277      H3281   1.046   1_565  S
N3277      H3282   1.046       .  S
N3280      H3283   1.046       .  S
N3280      H3284   1.044       .  S
C3285      C3286   1.403       .  A
C3285      C3290   1.402       .  A
C3285      H3292   1.084       .  S
C3286      C3287   1.415       .  A
C3287      C3288   1.398       .  A
C3287      N3294   1.433   1_655  S
C3288      C3289   1.396       .  A
C3288      H3293   1.085       .  S
C3289      C3290   1.417       .  A
C3290      N3291   1.438       .  S
N3291      H3295   1.045       .  S
N3291      H3296   1.045       .  S
N3294      H3297   1.046       .  S
N3294      H3298   1.046       .  S
C3299      C3300   1.406       .  A
C3299      C3304   1.405       .  A
C3299      H3306   1.084       .  S
C3300      C3301   1.415       .  A
C3301      C3302   1.396       .  A
C3301      N3308   1.433   1_455  S
C3302      C3303   1.397       .  A
C3302      H3307   1.085       .  S
C3303      C3304   1.405       .  A
C3304      N3305   1.431       .  S
N3305      H3309   1.045       .  S
N3305      H3310   1.044       .  S
N3308      H3311   1.046       .  S
N3308      H3312   1.046       .  S
C3313      C3314   1.407       .  A
C3313      C3318   1.408       .  A
C3313      H3320   1.084       .  S
C3314      C3315   1.417       .  A
C3315      C3316   1.410       .  A
C3315      N3322   1.438       .  S
C3316      C3317   1.406       .  A
C3316      H3321   1.082       .  S
C3317      C3318   1.414       .  A
C3318      N3319   1.438       .  S
N3319      H3323   1.046       .  S
N3319      H3324   1.046       .  S
N3322      H3325   1.046       .  S
N3322      H3326   1.046       .  S
C3327      C3328   1.404       .  A
C3327      C3332   1.405       .  A
C3327      H3334   1.084       .  S
C3328      C3329   1.411       .  A
C3329      C3330   1.398       .  A
C3329      N3336   1.439       .  S
C3330      C3331   1.407       .  A
C3330      H3335   1.084       .  S
C3331      C3332   1.413       .  A
C3332      N3333   1.438       .  S
N3333      H3337   1.046       .  S
N3333      H3338   1.046       .  S
N3336      H3339   1.044       .  S
N3336      H3340   1.046       .  S
C3341      C3342   1.402       .  A
C3341      C3346   1.404       .  A
C3341      H3348   1.084       .  S
C3342      C3343   1.417       .  A
C3343      C3344   1.399       .  A
C3343      N3350   1.433       .  S
C3344      C3345   1.396       .  A
C3344      H3349   1.085       .  S
C3345      C3346   1.408       .  A
C3346      N3347   1.432       .  S
N3347      H3351   1.045       .  S
N3347      H3352   1.045       .  S
N3350      H3353   1.046       .  S
N3350      H3354   1.046       .  S
C3355      C3356   1.406       .  A
C3355      C3360   1.410       .  A
C3355      H3362   1.084       .  S
C3356      C3357   1.410       .  A
C3357      C3358   1.412       .  A
C3357      N3364   1.437       .  S
C3358      C3359   1.408       .  A
C3358      H3363   1.084       .  S
C3359      C3360   1.409       .  A
C3360      N3361   1.436       .  S
N3361      H3365   1.046       .  S
N3361      H3366   1.045       .  S
N3364      H3367   1.045       .  S
N3364      H3368   1.046       .  S
C3369      C3370   1.400       .  A
C3369      C3374   1.404       .  A
C3369      H3376   1.084       .  S
C3370      C3371   1.411       .  A
C3371      C3372   1.409       .  A
C3371      N3378   1.432       .  S
C3372      C3373   1.408       .  A
C3372      H3377   1.083       .  S
C3373      C3374   1.421       .  A
C3374      N3375   1.433       .  S
N3375      H3379   1.046       .  S
N3375      H3380   1.046       .  S
N3378      H3381   1.046       .  S
C3383      C3384   1.407       .  A
C3383      C3388   1.413       .  A
C3383      H3390   1.084       .  S
C3384      C3385   1.413       .  A
C3385      C3386   1.411       .  A
C3385      N3392   1.438       .  S
C3386      C3387   1.405       .  A
C3386      H3391   1.084       .  S
C3387      C3388   1.411       .  A
C3388      N3389   1.437       .  S
N3389      H3393   1.046       .  S
N3389      H3394   1.045       .  S
N3392      H3395   1.044       .  S
N3392      H3396   1.046       .  S
C3397      C3398   1.408       .  A
C3397      C3402   1.406       .  A
C3397      H3404   1.085       .  S
C3398      C3399   1.403       .  A
C3399      C3400   1.402       .  A
C3399      N3406   1.437       .  S
C3400      C3401   1.407       .  A
C3400      H3405   1.084       .  S
C3401      C3402   1.410       .  A
C3402      N3403   1.438       .  S
N3403      H3407   1.045       .  S
N3403      H3408   1.046       .  S
N3406      H3409   1.045       .  S
N3406      H3410   1.046       .  S
C3411      C3412   1.408       .  A
C3411      C3416   1.409       .  A
C3411      H3418   1.085       .  S
C3412      C3413   1.406       .  A
C3413      C3414   1.395       .  A
C3413      N3420   1.434       .  S
C3414      C3415   1.407       .  A
C3414      H3419   1.084       .  S
C3415      C3416   1.411       .  A
C3416      N3417   1.437       .  S
N3417      H3421   1.045       .  S
N3417      H3422   1.045       .  S
N3420      H3423   1.046       .  S
N3420      H3424   1.045       .  S
C3425      C3430   1.412       .  A
C3425      H3432   1.084       .  S
C3426      C3427   1.415       .  A
C3427      C3428   1.422   1_556  A
C3427      N3434   1.436       .  S
C3428      H3433   1.083       .  S
C3429      C3430   1.416       .  A
C3430      N3431   1.432       .  S
N3431      H3435   1.046       .  S
N3431      H3436   1.045       .  S
N3434      H3437   1.046       .  S
N3434      H3438   1.046       .  S
C3439      C3440   1.402       .  A
C3439      C3444   1.407       .  A
C3439      H3446   1.081       .  S
C3440      C3441   1.409       .  A
C3441      C3442   1.409       .  A
C3441      N3448   1.432       .  S
C3442      C3443   1.405       .  A
C3442      H3447   1.084       .  S
C3443      C3444   1.417       .  A
C3444      N3445   1.438       .  S
N3445      H3449   1.045       .  S
N3445      H3450   1.044       .  S
N3448      H3451   1.046       .  S
N3448      H3452   1.045       .  S
C3453      C3454   1.407       .  A
C3453      C3458   1.405       .  A
C3453      H3460   1.084       .  S
C3454      C3455   1.406       .  A
C3455      C3456   1.405       .  A
C3455      N3462   1.432       .  S
C3456      C3457   1.407       .  A
C3456      H3461   1.085       .  S
C3457      C3458   1.409       .  A
C3458      N3459   1.440       .  S
N3459      H3463   1.046       .  S
N3459      H3464   1.044       .  S
N3462      H3465   1.045       .  S
N3462      H3466   1.045       .  S
C3467      C3468   1.397       .  A
C3467      C3472   1.401       .  A
C3467      H3474   1.085       .  S
C3468      C3469   1.418       .  A
C3469      C3470   1.404       .  A
C3469      N3476   1.437       .  S
C3470      C3471   1.402       .  A
C3470      H3475   1.084       .  S
C3471      C3472   1.417       .  A
C3472      N3473   1.433       .  S
N3473      H3477   1.046       .  S
N3473      H3478   1.045       .  S
N3476      H3479   1.045       .  S
N3476      H3480   1.045       .  S
C3481      C3482   1.403       .  A
C3481      C3486   1.400       .  A
C3481      H3488   1.084       .  S
C3482      C3483   1.415       .  A
C3483      C3484   1.400       .  A
C3483      N3490   1.439       .  S
C3484      C3485   1.401       .  A
C3484      H3489   1.084       .  S
C3485      C3486   1.416       .  A
C3486      N3487   1.433       .  S
N3487      H3491   1.044       .  S
N3487      H3492   1.046       .  S
N3490      H3493   1.046       .  S
N3490      H3494   1.046       .  S
C3495      C3496   1.401       .  A
C3495      C3500   1.397       .  A
C3495      H3502   1.083       .  S
C3496      C3497   1.404       .  A
C3497      C3498   1.404       .  A
C3497      N3504   1.437       .  S
C3498      C3499   1.407       .  A
C3498      H3503   1.084       .  S
C3499      C3500   1.406       .  A
C3500      N3501   1.433       .  S
N3501      H3505   1.046       .  S
N3501      H3506   1.046       .  S
N3504      H3507   1.045       .  S
N3504      H3508   1.045       .  S
C3509      C3510   1.402       .  A
C3509      C3514   1.407       .  A
C3509      H3516   1.083       .  S
C3510      C3511   1.414       .  A
C3511      C3512   1.401       .  A
C3511      N3518   1.433       .  S
C3512      C3513   1.403       .  A
C3512      H3517   1.085       .  S
C3513      C3514   1.417       .  A
C3514      N3515   1.438       .  S
N3515      H3519   1.045       .  S
N3515      H3520   1.044       .  S
N3518      H3521   1.045       .  S
N3518      H3522   1.044       .  S
C3523      C3524   1.410       .  A
C3523      C3528   1.407       .  A
C3523      H3530   1.084       .  S
C3524      C3525   1.404       .  A
C3525      C3526   1.403       .  A
C3525      N3532   1.437       .  S
C3526      C3527   1.408       .  A
C3526      H3531   1.084       .  S
C3527      C3528   1.407       .  A
C3528      N3529   1.437       .  S
N3529      H3533   1.046       .  S
N3529      H3534   1.046       .  S
N3532      H3535   1.046       .  S
N3532      H3536   1.046       .  S
C3537      C3538   1.406       .  A
C3537      C3542   1.401       .  A
C3537      H3544   1.084       .  S
C3538      C3539   1.407       .  A
C3539      C3540   1.405       .  A
C3539      N3546   1.438       .  S
C3540      C3541   1.408       .  A
C3540      H3545   1.085       .  S
C3541      C3542   1.403       .  A
C3542      N3543   1.437       .  S
N3543      H3547   1.046       .  S
N3543      H3548   1.046       .  S
N3546      H3550   1.046       .  S
C3551      C3552   1.408       .  A
C3551      C3556   1.410       .  A
C3551      H3558   1.084       .  S
C3552      C3553   1.415       .  A
C3553      C3554   1.413       .  A
C3553      N3560   1.432       .  S
C3554      C3555   1.408       .  A
C3554      H3559   1.084       .  S
C3555      C3556   1.414       .  A
C3556      N3557   1.432       .  S
N3557      H3561   1.046       .  S
N3557      H3562   1.046       .  S
N3560      H3563   1.046       .  S
N3560      H3564   1.045       .  S
C3565      C3566   1.404       .  A
C3565      C3570   1.412       .  A
C3565      H3572   1.083       .  S
C3566      C3567   1.410       .  A
C3567      C3568   1.408       .  A
C3567      N3574   1.432       .  S
C3568      C3569   1.402       .  A
C3568      H3573   1.084       .  S
C3569      C3570   1.412       .  A
C3570      N3571   1.437       .  S
N3571      H3575   1.046       .  S
N3571      H3576   1.045       .  S
N3574      H3577   1.046       .  S
N3574      H3578   1.045       .  S
C3579      C3580   1.401       .  A
C3579      C3584   1.409       .  A
C3579      H3586   1.083       .  S
C3580      C3581   1.420   1_455  A
C3581      C3582   1.389       .  A
C3581      N3588   1.434       .  S
C3582      C3583   1.391       .  A
C3582      H3587   1.085       .  S
C3583      C3584   1.414   1_655  A
C3584      N3585   1.432       .  S
N3585      H3589   1.045       .  S
N3585      H3590   1.044       .  S
N3588      H3591   1.046       .  S
N3588      H3592   1.045       .  S
C3593      C3594   1.390       .  A
C3593      C3598   1.395       .  A
C3593      H3600   1.085       .  S
C3594      C3595   1.417       .  A
C3595      C3596   1.401       .  A
C3595      N3602   1.435       .  S
C3596      C3597   1.399       .  A
C3596      H3601   1.084       .  S
C3597      C3598   1.421       .  A
C3598      N3599   1.432       .  S
N3599      H3603   1.045       .  S
N3599      H3604   1.046       .  S
N3602      H3605   1.045       .  S
N3602      H3606   1.045       .  S
C3607      C3608   1.405       .  A
C3607      C3612   1.406       .  A
C3607      H3614   1.084       .  S
C3608      C3609   1.411       .  A
C3609      C3610   1.412       .  A
C3609      N3616   1.437       .  S
C3610      C3611   1.406       .  A
C3610      H3615   1.084       .  S
C3611      C3612   1.414       .  A
C3612      N3613   1.432       .  S
N3613      H3617   1.045       .  S
N3613      H3618   1.045       .  S
N3616      H3620   1.046       .  S
C3621      C3622   1.403       .  A
C3621      C3626   1.410       .  A
C3621      H3628   1.083       .  S
C3622      C3623   1.414       .  A
C3623      C3624   1.401       .  A
C3623      N3630   1.432   1_455  S
C3624      C3625   1.397       .  A
C3624      H3629   1.084       .  S
C3625      C3626   1.413       .  A
C3626      N3627   1.436       .  S
N3627      H3631   1.046       .  S
N3627      H3632   1.045       .  S
N3630      H3633   1.043       .  S
N3630      H3634   1.046   1_655  S
C3635      C3636   1.404       .  A
C3635      C3640   1.410       .  A
C3635      H3642   1.083       .  S
C3636      C3637   1.414       .  A
C3637      C3638   1.395       .  A
C3637      N3644   1.433   1_655  S
C3638      C3639   1.396       .  A
C3638      H3643   1.085       .  S
C3639      C3640   1.412       .  A
C3640      N3641   1.438       .  S
N3641      H3645   1.046       .  S
N3641      H3646   1.044       .  S
N3644      H3647   1.044       .  S
N3644      H3648   1.046       .  S
C3649      C3650   1.401       .  A
C3649      C3654   1.401       .  A
C3649      H3656   1.084       .  S
C3650      C3651   1.402       .  A
C3651      C3652   1.400       .  A
C3651      N3658   1.433       .  S
C3652      C3653   1.408       .  A
C3652      H3657   1.082       .  S
C3653      C3654   1.409       .  A
C3654      N3655   1.431       .  S
N3655      H3659   1.046   1_556  S
N3655      H3660   1.046   1_556  S
N3658      H3661   1.046       .  S
N3658      H3662   1.046       .  S
C3663      C3664   1.406       .  A
C3663      C3668   1.408       .  A
C3663      H3670   1.084       .  S
C3664      C3665   1.420       .  A
C3665      C3666   1.410       .  A
C3665      N3672   1.432       .  S
C3666      C3667   1.411       .  A
C3666      H3671   1.083       .  S
C3667      C3668   1.416       .  A
C3668      N3669   1.432       .  S
N3669      H3673   1.046       .  S
N3669      H3674   1.046       .  S
N3672      H3675   1.046       .  S
N3672      H3676   1.044       .  S
C3677      C3678   1.402       .  A
C3677      C3682   1.397       .  A
C3677      H3684   1.084       .  S
C3678      C3679   1.407       .  A
C3679      C3680   1.411       .  A
C3679      N3686   1.436       .  S
C3680      C3681   1.410       .  A
C3680      H3685   1.083       .  S
C3681      C3682   1.419       .  A
N3683      H3687   1.045       .  S
N3683      H3688   1.045       .  S
N3686      H3689   1.046   1_455  S
N3686      H3690   1.046       .  S
C3691      C3692   1.396       .  A
C3691      C3696   1.402       .  A
C3691      H3698   1.084       .  S
C3692      C3693   1.409       .  A
C3693      C3694   1.404       .  A
C3693      N3700   1.433       .  S
C3694      C3695   1.403       .  A
C3694      H3699   1.084       .  S
C3695      C3696   1.420       .  A
C3696      N3697   1.434       .  S
N3697      H3701   1.045       .  S
N3697      H3702   1.045       .  S
N3700      H3703   1.046       .  S
N3700      H3704   1.045       .  S
C3705      C3706   1.409       .  A
C3705      C3710   1.415       .  A
C3705      H3712   1.084       .  S
C3706      C3707   1.410       .  A
C3707      C3708   1.413       .  A
C3707      N3714   1.438       .  S
C3708      C3709   1.410       .  A
C3708      H3713   1.084       .  S
C3709      C3710   1.413       .  A
C3710      N3711   1.437       .  S
N3711      H3715   1.046       .  S
N3714      H3717   1.045       .  S
N3714      H3718   1.046       .  S
C3719      C3720   1.405       .  A
C3719      C3724   1.403       .  A
C3719      H3726   1.084       .  S
C3720      C3721   1.413       .  A
C3721      C3722   1.409       .  A
C3721      N3728   1.432       .  S
C3722      C3723   1.402       .  A
C3722      H3727   1.083       .  S
C3723      C3724   1.409       .  A
C3724      N3725   1.438       .  S
N3725      H3729   1.046       .  S
N3725      H3730   1.046       .  S
N3728      H3731   1.046       .  S
N3728      H3732   1.045       .  S
C3733      C3734   1.405       .  A
C3733      C3738   1.409       .  A
C3733      H3740   1.084       .  S
C3734      C3735   1.416       .  A
C3735      C3736   1.417       .  A
C3735      N3742   1.437       .  S
C3736      C3737   1.405       .  A
C3736      H3741   1.084       .  S
C3737      C3738   1.419       .  A
C3738      N3739   1.433       .  S
N3739      H3743   1.044       .  S
N3739      H3744   1.045       .  S
N3742      H3745   1.046       .  S
N3742      H3746   1.046       .  S
C3747      C3748   1.408       .  A
C3747      C3752   1.398       .  A
C3747      H3754   1.084       .  S
C3748      C3749   1.411       .  A
C3749      C3750   1.406       .  A
C3749      N3756   1.438       .  S
C3750      C3751   1.409       .  A
C3750      H3755   1.084       .  S
C3751      C3752   1.411       .  A
C3752      N3753   1.433       .  S
N3753      H3757   1.045       .  S
N3753      H3758   1.046       .  S
N3756      H3759   1.046       .  S
N3756      H3760   1.045       .  S
C3761      C3762   1.397       .  A
C3761      C3766   1.413       .  A
C3761      H3768   1.084       .  S
C3762      C3763   1.424       .  A
C3763      C3764   1.405       .  A
C3763      N3770   1.430       .  S
C3764      C3765   1.399       .  A
C3764      H3769   1.084       .  S
C3765      C3766   1.424       .  A
C3766      N3767   1.436       .  S
N3767      H3771   1.045       .  S
N3767      H3772   1.045       .  S
N3770      H3773   1.045       .  S
N3770      H3774   1.037       .  S
C3775      C3776   1.404       .  A
C3775      C3780   1.405       .  A
C3775      H3782   1.084       .  S
C3776      C3777   1.414       .  A
C3777      C3778   1.398       .  A
C3777      N3784   1.433       .  S
C3778      C3779   1.403       .  A
C3778      H3783   1.084       .  S
C3779      C3780   1.416       .  A
C3780      N3781   1.432       .  S
N3781      H3785   1.046       .  S
N3781      H3786   1.046       .  S
N3784      H3787   1.046       .  S
N3784      H3788   1.046       .  S
C3789      C3790   1.403       .  A
C3789      C3794   1.400       .  A
C3789      H3796   1.084       .  S
C3790      C3791   1.413       .  A
C3791      C3792   1.400       .  A
C3791      N3798   1.431       .  S
C3792      C3793   1.402       .  A
C3792      H3797   1.084       .  S
C3793      C3794   1.405       .  A
C3794      N3795   1.433       .  S
N3795      H3799   1.046       .  S
N3795      H3800   1.046       .  S
N3798      H3801   1.045       .  S
C3803      C3804   1.411       .  A
C3803      C3808   1.407       .  A
C3803      H3810   1.084       .  S
C3804      C3805   1.411       .  A
C3805      C3806   1.410       .  A
C3805      N3812   1.432       .  S
C3806      C3807   1.407       .  A
C3806      H3811   1.084       .  S
C3807      C3808   1.412       .  A
C3808      N3809   1.433       .  S
N3809      H3813   1.045       .  S
N3809      H3814   1.046       .  S
N3812      H3815   1.045       .  S
N3812      H3816   1.046       .  S
C3817      C3818   1.406       .  A
C3817      C3822   1.403       .  A
C3817      H3824   1.084       .  S
C3818      C3819   1.416       .  A
C3819      C3820   1.404       .  A
C3819      N3826   1.439       .  S
C3820      C3821   1.402       .  A
C3820      H3825   1.082       .  S
C3821      C3822   1.405       .  A
C3822      N3823   1.428       .  S
N3823      H3827   1.046       .  S
N3823      H3828   1.045       .  S
N3826      H3829   1.046       .  S
N3826      H3830   1.046       .  S
C3831      C3832   1.412       .  A
C3831      C3836   1.396       .  A
C3831      H3838   1.082       .  S
C3832      C3833   1.404       .  A
C3833      C3834   1.403       .  A
C3833      N3840   1.439       .  S
C3834      C3835   1.411       .  A
C3834      H3839   1.083       .  S
C3835      C3836   1.399       .  A
C3836      N3837   1.438       .  S
N3837      H3841   1.046       .  S
N3837      H3842   1.045       .  S
N3840      H3843   1.045       .  S
N3840      H3844   1.046       .  S
C3845      C3846   1.405       .  A
C3845      C3850   1.400       .  A
C3845      H3852   1.084       .  S
C3846      C3847   1.415       .  A
C3847      C3848   1.407       .  A
C3847      N3854   1.432       .  S
C3848      C3849   1.410       .  A
C3848      H3853   1.084       .  S
C3849      C3850   1.412       .  A
C3850      N3851   1.433       .  S
N3851      H3855   1.045       .  S
N3851      H3856   1.046       .  S
N3854      H3857   1.045       .  S
N3854      H3858   1.046       .  S
C3859      C3860   1.405       .  A
C3859      C3864   1.398       .  A
C3860      C3861   1.418       .  A
C3861      C3862   1.406       .  A
C3861      N3868   1.438       .  S
C3862      C3863   1.402       .  A
C3862      H3867   1.084       .  S
C3863      C3864   1.406       .  A
N3865      H3869   1.046       .  S
N3865      H3870   1.046       .  S
N3868      H3871   1.046       .  S
N3868      H3872   1.046       .  S
C3873      C3874   1.403       .  A
C3873      C3878   1.408       .  A
C3873      H3880   1.084       .  S
C3874      C3875   1.408       .  A
C3875      C3876   1.407       .  A
C3875      N3882   1.433       .  S
C3876      C3877   1.403       .  A
C3876      H3881   1.084       .  S
C3877      C3878   1.419       .  A
C3878      N3879   1.438       .  S
N3879      H3883   1.046       .  S
N3879      H3884   1.045       .  S
N3882      H3885   1.046       .  S
N3882      H3886   1.045       .  S
C3887      C3888   1.395       .  A
C3887      C3892   1.402       .  A
C3887      H3894   1.084       .  S
C3888      C3889   1.419       .  A
C3889      C3890   1.402       .  A
C3889      N3896   1.432       .  S
C3890      C3891   1.394       .  A
C3890      H3895   1.084       .  S
C3891      C3892   1.418       .  A
C3892      N3893   1.433       .  S
N3893      H3897   1.046       .  S
N3893      H3898   1.046       .  S
N3896      H3899   1.046       .  S
N3896      H3900   1.046       .  S
C3901      C3902   1.413       .  A
C3901      C3906   1.407       .  A
C3901      H3908   1.084       .  S
C3902      C3903   1.393       .  A
C3903      C3904   1.396       .  A
C3903      N3910   1.432       .  S
C3904      C3905   1.414       .  A
C3904      H3909   1.084       .  S
C3905      C3906   1.402       .  A
C3906      N3907   1.436       .  S
N3907      H3911   1.046       .  S
N3907      H3912   1.045       .  S
N3910      H3913   1.046       .  S
N3910      H3914   1.046       .  S
C3915      C3916   1.400       .  A
C3915      C3920   1.415       .  A
C3915      H3922   1.083       .  S
C3917      C3918   1.407       .  A
C3917      N3924   1.433       .  S
C3918      C3919   1.398       .  A
C3918      H3923   1.084       .  S
C3920      N3921   1.436       .  S
N3921      H3925   1.046       .  S
N3921      H3926   1.045       .  S
N3924      H3927   1.041       .  S
N3924      H3928   1.044       .  S
C3929      C3930   1.404       .  A
C3929      C3934   1.408       .  A
C3929      H3936   1.084       .  S
C3930      C3931   1.412       .  A
C3931      C3932   1.398       .  A
C3931      N3938   1.433       .  S
C3932      C3933   1.408       .  A
C3932      H3937   1.084       .  S
C3933      C3934   1.418       .  A
C3934      N3935   1.438       .  S
N3935      H3939   1.046       .  S
N3935      H3940   1.046       .  S
N3938      H3941   1.046       .  S
N3938      H3942   1.045       .  S
C3943      C3944   1.408       .  A
C3943      C3948   1.398       .  A
C3943      H3950   1.084       .  S
C3944      C3945   1.413       .  A
C3945      C3946   1.409       .  A
C3945      N3952   1.438       .  S
C3946      C3947   1.405       .  A
C3946      H3951   1.084       .  S
C3947      C3948   1.409       .  A
C3948      N3949   1.433       .  S
N3949      H3953   1.045       .  S
N3949      H3954   1.046       .  S
N3952      H3955   1.046       .  S
N3952      H3956   1.046       .  S
C3957      C3958   1.406       .  A
C3957      C3962   1.401       .  A
C3957      H3964   1.083       .  S
C3958      C3959   1.418       .  A
C3959      C3960   1.398       .  A
C3959      N3966   1.434       .  S
C3960      C3961   1.398       .  A
C3960      H3965   1.085       .  S
C3961      C3962   1.403       .  A
C3962      N3963   1.429       .  S
N3963      H3967   1.046       .  S
N3963      H3968   1.045       .  S
N3966      H3969   1.045       .  S
N3966      H3970   1.046       .  S
C3971      C3972   1.408       .  A
C3971      C3976   1.403       .  A
C3971      H3978   1.083       .  S
C3972      C3973   1.420       .  A
C3973      C3974   1.401       .  A
C3973      N3980   1.433       .  S
C3974      C3975   1.398       .  A
C3974      H3979   1.085       .  S
C3975      C3976   1.412       .  A
C3976      N3977   1.433       .  S
N3977      H3981   1.045       .  S
N3977      H3982   1.046       .  S
N3980      H3983   1.046       .  S
N3980      H3984   1.046       .  S
C3985      C3986   1.407       .  A
C3985      C3990   1.416       .  A
C3985      H3992   1.084       .  S
C3986      C3987   1.414       .  A
C3987      C3988   1.413       .  A
C3987      N3994   1.438       .  S
C3988      C3989   1.406       .  A
C3988      H3993   1.084       .  S
C3989      C3990   1.411       .  A
C3990      N3991   1.431       .  S
N3991      H3995   1.045       .  S
N3991      H3996   1.046       .  S
N3994      H3997   1.045       .  S
N3994      H3998   1.046       .  S
C3999      C4000   1.407       .  A
C3999      C4004   1.410       .  A
C3999      H4006   1.083       .  S
C4000      C4001   1.416       .  A
C4001      C4002   1.404       .  A
C4001      N4008   1.432       .  S
C4002      C4003   1.401       .  A
C4002      H4007   1.084       .  S
C4003      C4004   1.414       .  A
C4004      N4005   1.437       .  S
N4005      H4009   1.046       .  S
N4005      H4010   1.046       .  S
N4008      H4011   1.046       .  S
N4008      H4012   1.046       .  S
C4013      C4014   1.403       .  A
C4013      C4018   1.410       .  A
C4013      H4020   1.084       .  S
C4014      C4015   1.410       .  A
C4015      C4016   1.400       .  A
C4015      N4022   1.433       .  S
C4016      C4017   1.400       .  A
C4016      H4021   1.084       .  S
C4017      C4018   1.411       .  A
C4018      N4019   1.437       .  S
N4019      H4023   1.045       .  S
N4019      H4024   1.045       .  S
N4022      H4025   1.046       .  S
N4022      H4026   1.046       .  S
C4027      C4028   1.408       .  A
C4027      C4032   1.414       .  A
C4027      H4034   1.084       .  S
C4028      C4029   1.407       .  A
C4029      C4030   1.412       .  A
C4029      N4036   1.432       .  S
C4030      C4031   1.412       .  A
C4030      H4035   1.084       .  S
C4031      C4032   1.416       .  A
C4032      N4033   1.437       .  S
N4033      H4037   1.046       .  S
N4036      H4039   1.046       .  S
N4036      H4040   1.045       .  S
C4041      C4042   1.409       .  A
C4041      C4046   1.401       .  A
C4041      H4048   1.083       .  S
C4042      C4043   1.409       .  A
C4043      C4044   1.398       .  A
C4043      N4050   1.433       .  S
C4044      C4045   1.403       .  A
C4044      H4049   1.078       .  S
C4045      C4046   1.406       .  A
C4046      N4047   1.439       .  S
N4047      H4051   1.046       .  S
N4047      H4052   1.043       .  S
N4050      H4053   1.046       .  S
N4050      H4054   1.046       .  S
C4055      C4056   1.410       .  A
C4055      C4060   1.403       .  A
C4055      H4062   1.083       .  S
C4056      C4057   1.408       .  A
C4057      C4058   1.400       .  A
C4057      N4064   1.432       .  S
C4058      C4059   1.405       .  A
C4058      H4063   1.085       .  S
C4059      C4060   1.403       .  A
N4061      H4065   1.046       .  S
N4061      H4066   1.045       .  S
N4064      H4067   1.046       .  S
N4064      H4068   1.046       .  S
C4069      C4070   1.412       .  A
C4069      C4074   1.418       .  A
C4069      H4076   1.080       .  S
C4070      C4071   1.410       .  A
C4071      C4072   1.413       .  A
C4071      N4078   1.432       .  S
C4072      C4073   1.418       .  A
C4072      H4077   1.082       .  S
C4073      C4074   1.419       .  A
C4074      N4075   1.438       .  S
N4075      H4079   1.046       .  S
N4075      H4080   1.043       .  S
N4078      H4081   1.046       .  S
N4078      H4082   1.045       .  S
C4083      C4084   1.401       .  A
C4083      C4088   1.402       .  A
C4083      H4090   1.084       .  S
C4084      C4085   1.416       .  A
C4085      C4086   1.405       .  A
C4085      N4092   1.439       .  S
C4086      C4087   1.403       .  A
C4086      H4091   1.084       .  S
C4087      C4088   1.412       .  A
C4088      N4089   1.432       .  S
N4089      H4093   1.046       .  S
N4089      H4094   1.045       .  S
N4092      H4095   1.046       .  S
N4092      H4096   1.046       .  S
