geometry optimzed in LAMMPS
_audit_creation_date              2020-12-01 
_audit_creation_method            'lammps2cif' 
_symmetry_space_group_name_H-M    'P1' 
_symmetry_Int_Tables_number       1 
_symmetry_cell_setting            triclinic 
loop_ 
_symmetry_equiv_pos_as_xyz 
  x,y,z 
_cell_length_a                    52.98035264 
_cell_length_b                    53.00944831472414 
_cell_length_c                    30.112503392966165 
_cell_angle_alpha                 90.22255043603936 
_cell_angle_beta                  90.0477037669078 
_cell_angle_gamma                 90.01052702287028 
loop_ 
_atom_site_label 
_atom_site_type_symbol 
_atom_site_fract_x 
_atom_site_fract_y 
_atom_site_fract_z 
_atom_site_charge 
O1          O  0.15562032  0.36686837  0.89154083    -0.84700
O2          O  0.16048281  0.31794153  0.86430359    -0.81800
C3          C  0.15558002  0.29651686  0.84843382     0.98700
O4          O  0.13603948  0.29348018  0.82457119    -0.81800
O5          O  0.09289429  0.30390275  0.87614078    -0.84400
C6          C  0.07710756  0.31706384  0.89758173     1.03300
O7          O  0.07519064  0.34055631  0.89097119    -0.77200
O8          O  0.11822678  0.36273658  0.92215710    -0.77400
C9          C  0.14156118  0.36682246  0.92558215     1.03200
O10         O  0.14546137  0.38075479  0.79987828    -0.84700
O11         O  0.15411523  0.33246310  0.77302485    -0.81800
C12         C  0.13702608  0.32936135  0.74409499     0.98800
O13         O  0.11467870  0.32502345  0.75611261    -0.81800
O14         O  0.07098271  0.33058143  0.80393379    -0.84400
C15         C  0.06450824  0.35330073  0.79794461     1.03200
O16         O  0.07827025  0.37088311  0.81264013    -0.77200
O17         O  0.11917309  0.39657359  0.84832983    -0.77400
C18         C  0.13428207  0.39952024  0.81626812     1.03200
Cr19       Cr  0.15128689  0.34908671  0.83279712     1.93700
Cr20       Cr  0.10490643  0.31532127  0.81700142     1.93200
Cr21       Cr  0.09926627  0.36592525  0.86626158     1.39100
O22         O  0.11854713  0.34332113  0.83915910    -1.22500
O23         O  0.38025465  0.16215343  0.81646493    -0.84700
O24         O  0.33134195  0.16610438  0.78507976    -0.81800
C25         C  0.32820148  0.14812584  0.75754835     0.98700
O26         O  0.32629941  0.12569788  0.77068477    -0.81800
O27         O  0.33351965  0.08349776  0.82082858    -0.84400
C28         C  0.35647589  0.07808496  0.81439223     1.03300
O29         O  0.37337188  0.09276469  0.82888565    -0.77200
O30         O  0.39592720  0.13556699  0.86439541    -0.77400
C31         C  0.39907247  0.15096667  0.83300139     1.03200
O32         O  0.36299520  0.17161663  0.90682319    -0.84700
O33         O  0.31371569  0.17285295  0.87571121    -0.81800
C34         C  0.29314072  0.16553017  0.85887035     0.98800
O35         O  0.29271778  0.14604855  0.83463794    -0.81800
O36         O  0.30485415  0.10594587  0.89036507    -0.84400
C37         C  0.31831973  0.09098902  0.91264165     1.03200
O38         O  0.34189511  0.08965215  0.90645242    -0.77200
O39         O  0.36123008  0.13393905  0.93644870    -0.77400
C40         C  0.36401927  0.15742546  0.94068429     1.03200
Cr41       Cr  0.34680303  0.16556161  0.84662771     1.93700
Cr42       Cr  0.31646241  0.11670001  0.83105044     1.93200
Cr43       Cr  0.36633005  0.11451780  0.88161562     1.39100
O44         O  0.34326091  0.13241340  0.85318998    -1.22500
O45         O  0.16409327  0.66988179  0.10128576    -0.84700
O46         O  0.16813015  0.71760641  0.13547769    -0.81800
C47         C  0.16216462  0.73814222  0.15382096     0.98700
O48         O  0.14334874  0.73907089  0.17954457    -0.81800
O49         O  0.10152909  0.73029160  0.12578984    -0.84400
C50         C  0.08668982  0.71777471  0.10134613     1.03300
O51         O  0.08342319  0.69440986  0.10764591    -0.77200
O52         O  0.12634453  0.67443996  0.07218306    -0.77400
C53         C  0.14973705  0.67096770  0.06762162     1.03200
O54         O  0.15514936  0.65120001  0.19046401    -0.84700
O55         O  0.16274069  0.69843353  0.22467403    -0.81800
C56         C  0.14578861  0.70039365  0.25420516     0.98800
O57         O  0.12319878  0.70448549  0.24311787    -0.81800
O58         O  0.07962720  0.70016454  0.19479212    -0.84400
C59         C  0.07475121  0.67709568  0.20089821     1.03200
O60         O  0.08804288  0.66051515  0.18197397    -0.77200
O61         O  0.12835262  0.63747739  0.14094368    -0.77400
C62         C  0.14346476  0.63316354  0.17246753     1.03200
Cr63       Cr  0.15999924  0.68467019  0.16252169     1.93700
Cr64       Cr  0.11305632  0.71655211  0.18373060     1.93200
Cr65       Cr  0.10798043  0.66836811  0.12809712     1.39100
O66         O  0.12714199  0.68992724  0.15780723    -1.22500
O67         O  0.38488008  0.88196182  0.16756587    -0.84700
O68         O  0.35211402  0.88097915  0.23851354    -0.81800
C69         C  0.33436883  0.88754741  0.26406335     0.98700
O70         O  0.31485089  0.89838395  0.24857386    -0.81800
O71         O  0.32967760  0.94704822  0.22982151    -0.84400
C72         C  0.34327754  0.96377331  0.21209796     1.03300
O73         O  0.35260266  0.96029245  0.17395692    -0.77200
O74         O  0.38857080  0.92252313  0.17774494    -0.77400
C75         C  0.39801217  0.90069025  0.17941269     1.03200
O76         O  0.34302708  0.87201600  0.10955442    -0.84700
O77         O  0.31269926  0.86422103  0.18238962    -0.81800
C78         C  0.29259465  0.87268918  0.16594569     0.98800
O79         O  0.28994823  0.89620053  0.16168169    -0.81800
O80         O  0.30305038  0.94601723  0.14712128    -0.84400
C81         C  0.31143226  0.94849028  0.10797484     1.03200
O82         O  0.33164357  0.93776768  0.09641590    -0.77200
O83         O  0.36913758  0.90271027  0.09406291    -0.77400
C84         C  0.35650068  0.88362772  0.08179587     1.03200
Cr85       Cr  0.34756288  0.87721642  0.17409756     1.93700
Cr86       Cr  0.31140106  0.92086962  0.19484469     1.93200
Cr87       Cr  0.35909705  0.92933353  0.13808823     1.39100
O88         O  0.33931655  0.90940385  0.16932005    -1.22500
O89         O  0.64698576  0.15239535  0.21176366    -0.84700
O90         O  0.69539842  0.15923344  0.24273323    -0.81800
C91         C  0.69889182  0.14173523  0.27049390     0.98700
O92         O  0.70134871  0.11928264  0.25737952    -0.81800
O93         O  0.69449025  0.07689795  0.20675785    -0.84400
C94         C  0.67124664  0.07147280  0.20992440     1.03300
O95         O  0.65474378  0.08541539  0.19257863    -0.77200
O96         O  0.63226448  0.12809132  0.15906243    -0.77400
C97         C  0.62854924  0.14179924  0.19282498     1.03200
O98         O  0.66366539  0.16461173  0.12284142    -0.84700
O99         O  0.71203522  0.16685124  0.15321712    -0.81800
C100        C  0.73294163  0.16045311  0.16951977     0.98800
O101        O  0.73462375  0.14057263  0.19258513    -0.81800
O102        O  0.72432423  0.09951909  0.13743483    -0.84400
C103        C  0.71142140  0.08538533  0.11240765     1.03200
O104        O  0.68781033  0.08343280  0.11745125    -0.77200
O105        O  0.66855705  0.12814984  0.08912751    -0.77400
C106        C  0.66508005  0.15159111  0.08767844     1.03200
Cr107      Cr  0.67983505  0.15814382  0.18200937     1.93700
Cr108      Cr  0.71163109  0.11029067  0.19657033     1.93200
Cr109      Cr  0.66258794  0.10769278  0.14213184     1.39100
O110        O  0.68473033  0.12538726  0.17350360    -1.22500
O111        O  0.85768182  0.34900335  0.10105030    -0.84700
O112        O  0.85398604  0.31991581  0.17657655    -0.81800
C113        C  0.86278831  0.29891848  0.16402311     0.98700
O114        O  0.88609086  0.29682996  0.15645106    -0.81800
O115        O  0.93440217  0.31075058  0.13188892    -0.84400
C116        C  0.93447149  0.31713043  0.09122726     1.03300
O117        O  0.92262950  0.33647878  0.07889959    -0.77200
O118        O  0.88774297  0.37439209  0.07890245    -0.77400
C119        C  0.86766730  0.36213410  0.07098909     1.03200
O120        O  0.87087694  0.39190600  0.15488123    -0.84700
O121        O  0.87279159  0.36142342  0.22728246    -0.81800
C122        C  0.88090980  0.34507771  0.25400117     0.98800
O123        O  0.89129995  0.32510069  0.23936180    -0.81800
O124        O  0.93782858  0.34114250  0.21151995    -0.84400
C125        C  0.95408629  0.35347034  0.19008275     1.03200
O126        O  0.94957171  0.35990937  0.15046789    -0.77200
O127        O  0.91191833  0.39565549  0.15683949    -0.77400
C128        C  0.89031787  0.40489998  0.16335547     1.03200
Cr129      Cr  0.86618007  0.35486693  0.16419643     1.93700
Cr130      Cr  0.91133598  0.32033262  0.18263796     1.93200
Cr131      Cr  0.91654624  0.36527542  0.11906732     1.39100
O132        O  0.89810050  0.34666785  0.15524439    -1.22500
O133        O  0.88064781  0.67948261  0.88359689    -0.84700
O134        O  0.87706729  0.72712802  0.84980452    -0.81800
C135        C  0.88275463  0.74744770  0.83074380     0.98700
O136        O  0.90070694  0.74786872  0.80298711    -0.81800
O137        O  0.94405924  0.73859435  0.85204419    -0.84400
C138        C  0.95966494  0.72618544  0.87476034     1.03300
O139        O  0.96159269  0.70252978  0.87039994    -0.77200
O140        O  0.91872645  0.68532590  0.90988868    -0.77400
C141        C  0.89547757  0.68204355  0.91633796     1.03200
O142        O  0.88677832  0.66032971  0.79404524    -0.84700
O143        O  0.87905490  0.70753891  0.76052314    -0.81800
C144        C  0.89520652  0.70861761  0.72965131     0.98800
O145        O  0.91819950  0.71184742  0.73863752    -0.81800
O146        O  0.96310039  0.70652329  0.78220102    -0.84400
C147        C  0.96781871  0.68311960  0.77925079     1.03200
O148        O  0.95402369  0.66740714  0.79908348    -0.77200
O149        O  0.91364717  0.64648052  0.84321869    -0.77400
C150        C  0.89791101  0.64216849  0.81244696     1.03200
Cr151      Cr  0.88337920  0.69396724  0.82216984     1.93700
Cr152      Cr  0.93040573  0.72435033  0.79610473     1.93200
Cr153      Cr  0.93552103  0.67701077  0.85337379     1.39100
O154        O  0.91639956  0.69849075  0.82396122    -1.22500
O155        O  0.64753423  0.87454637  0.84295402    -0.84700
O156        O  0.68002992  0.87602598  0.77289382    -0.81800
C157        C  0.69709349  0.88376382  0.74723056     0.98700
O158        O  0.71567779  0.89615703  0.76254297    -0.81800
O159        O  0.69596739  0.94260465  0.78425969    -0.84400
C160        C  0.68202311  0.95842422  0.80375779     1.03300
O161        O  0.67540655  0.95469826  0.84355639    -0.77200
O162        O  0.64159682  0.91539992  0.84002522    -0.77400
C163        C  0.63337765  0.89325080  0.83523032     1.03200
O164        O  0.68995624  0.86542932  0.90087516    -0.84700
O165        O  0.72104550  0.86151033  0.82803714    -0.81800
C166        C  0.74131530  0.87178389  0.84073165     0.98800
O167        O  0.74208691  0.89537537  0.84667546    -0.81800
O168        O  0.72471252  0.94400260  0.86543164    -0.84400
C169        C  0.71747612  0.94477054  0.90558706     1.03200
O170        O  0.69929935  0.93117288  0.91792636    -0.77200
O171        O  0.66270660  0.89468793  0.91933995    -0.77400
C172        C  0.67515115  0.87509380  0.92885865     1.03200
Cr173      Cr  0.68517470  0.87183495  0.83683911     1.93700
Cr174      Cr  0.71770019  0.91839523  0.81690209     1.93200
Cr175      Cr  0.67131627  0.92262088  0.87760716     1.39100
O176        O  0.69142498  0.90436167  0.84362498    -1.22500
O177        O  0.36299672  0.17112082  0.40943111    -0.84700
O178        O  0.36232836  0.21979290  0.38074540    -0.81800
C179        C  0.36994446  0.24050208  0.36553645     0.98700
O180        O  0.39020517  0.24149396  0.34326292    -0.81800
O181        O  0.43090432  0.22767997  0.39901109    -0.84400
C182        C  0.44523563  0.21317398  0.42090613     1.03300
O183        O  0.44553246  0.18993873  0.41234743    -0.77200
O184        O  0.39954251  0.17494098  0.44302089    -0.77400
C185        C  0.37583744  0.17321577  0.44471867     1.03200
O186        O  0.37409412  0.15465876  0.31978091    -0.84700
O187        O  0.36973251  0.20312469  0.29020255    -0.81800
C188        C  0.38774110  0.20489521  0.26280592     0.98800
O189        O  0.41002226  0.20798644  0.27663702    -0.81800
O190        O  0.45141382  0.19811119  0.32752986    -0.84400
C191        C  0.45571712  0.17478205  0.32182070     1.03200
O192        O  0.44066499  0.15846229  0.33721706    -0.77200
O193        O  0.39644111  0.13829831  0.37325152    -0.77400
C194        C  0.38273140  0.13556012  0.33932072     1.03200
Cr195      Cr  0.36981307  0.18741130  0.35068789     1.93700
Cr196      Cr  0.41925944  0.21700711  0.33840280     1.93200
Cr197      Cr  0.41915697  0.16710212  0.38913367     1.39100
O198        O  0.40270379  0.19058176  0.35930054    -1.22500
O199        O  0.14432103  0.37887919  0.30621227    -0.84700
O200        O  0.19119849  0.37067818  0.27270393    -0.81800
C201        C  0.19397152  0.38803888  0.24421048     0.98700
O202        O  0.19935046  0.41012825  0.25662258    -0.81800
O203        O  0.19451204  0.45357621  0.30412396    -0.84400
C204        C  0.17154153  0.45932283  0.29786682     1.03300
O205        O  0.15437926  0.44597639  0.31494217    -0.77200
O206        O  0.13015570  0.40556902  0.35540656    -0.77400
C207        C  0.12605601  0.39016011  0.32407682     1.03200
O208        O  0.16226091  0.36987974  0.39608105    -0.84700
O209        O  0.20976942  0.36436002  0.36303139    -0.81800
C210        C  0.23092820  0.37020241  0.34719347     0.98800
O211        O  0.23282436  0.38925671  0.32218757    -0.81800
O212        O  0.22331465  0.43143117  0.37522887    -0.84400
C213        C  0.21082764  0.44735835  0.39744118     1.03200
O214        O  0.18750349  0.45037855  0.38992077    -0.77200
O215        O  0.16754011  0.40756171  0.42482883    -0.77400
C216        C  0.16452962  0.38417558  0.42980500     1.03200
Cr217      Cr  0.17734918  0.37350256  0.33497132     1.93700
Cr218      Cr  0.21051519  0.41992011  0.31646968     1.93200
Cr219      Cr  0.16147234  0.42579335  0.36894468     1.39100
O220        O  0.18314752  0.40627480  0.34021984    -1.22500
O221        O  0.87126840  0.38449750  0.70090168    -0.84700
O222        O  0.82244053  0.37880309  0.72815061    -0.81800
C223        C  0.81961165  0.39528102  0.75837893     0.98700
O224        O  0.81761331  0.41831905  0.74845315    -0.81800
O225        O  0.82643352  0.46258221  0.70295596    -0.84400
C226        C  0.84963207  0.46690072  0.71034462     1.03300
O227        O  0.86600403  0.45205234  0.69489469    -0.77200
O228        O  0.88821847  0.41085615  0.65384348    -0.77400
C229        C  0.89043285  0.39506695  0.68476890     1.03200
O230        O  0.85597717  0.37779300  0.60882092    -0.84700
O231        O  0.80666599  0.37568137  0.63679374    -0.81800
C232        C  0.78598558  0.38154058  0.65465624     0.98800
O233        O  0.78484294  0.40063735  0.67995446    -0.81800
O234        O  0.79798792  0.44268328  0.62891258    -0.84400
C235        C  0.81229785  0.45701915  0.60687151     1.03200
O236        O  0.83528224  0.45947638  0.61730826    -0.77200
O237        O  0.85414903  0.41622169  0.58192460    -0.77400
C238        C  0.85728222  0.39289036  0.57631540     1.03200
Cr239      Cr  0.83886053  0.38173259  0.66830437     1.93700
Cr240      Cr  0.80864328  0.42995288  0.68819185     1.93200
Cr241      Cr  0.85909728  0.43325010  0.63924410     1.39100
O242        O  0.83549652  0.41485220  0.66507979    -1.22500
O243        O  0.66704743  0.18571578  0.61294967    -0.84700
O244        O  0.67340553  0.21780277  0.68414527    -0.81800
C245        C  0.66307953  0.23804506  0.67141316     0.98700
O246        O  0.63938638  0.23917494  0.66808998    -0.81800
O247        O  0.59041696  0.22333051  0.65516178    -0.84400
C248        C  0.58867716  0.21679777  0.61482072     1.03300
O249        O  0.60046987  0.19769184  0.60068127    -0.77200
O250        O  0.63625990  0.15983953  0.59646584    -0.77400
C251        C  0.65653571  0.17087690  0.58586987     1.03200
O252        O  0.65789967  0.14444503  0.67200121    -0.84700
O253        O  0.65900474  0.17761275  0.74201034    -0.81800
C254        C  0.65235388  0.19509346  0.76795598     0.98800
O255        O  0.64038786  0.21395268  0.75311949    -0.81800
O256        O  0.59261119  0.19506580  0.73569680    -0.84400
C257        C  0.57572116  0.18186993  0.71717603     1.03200
O258        O  0.57855078  0.17443703  0.67749190    -0.77200
O259        O  0.61710833  0.13947935  0.67798257    -0.77400
C260        C  0.63912877  0.13056485  0.68084800     1.03200
Cr261      Cr  0.66183680  0.18200310  0.67745830     1.93700
Cr262      Cr  0.61677923  0.21583100  0.70085341     1.93200
Cr263      Cr  0.60961686  0.16940375  0.64063457     1.39100
O264        O  0.62932748  0.18908513  0.67306488    -1.22500
O265        O  0.66188847  0.84305343  0.40012897    -0.84700
O266        O  0.66612931  0.81180973  0.32822372    -0.81800
C267        C  0.65559643  0.79144307  0.33946527     0.98700
O268        O  0.63182279  0.79009139  0.34245324    -0.81800
O269        O  0.58391757  0.80789058  0.36315520    -0.84400
C270        C  0.58388161  0.81415302  0.40388460     1.03300
O271        O  0.59710424  0.83249022  0.41718336    -0.77200
O272        O  0.63278428  0.87034213  0.41806911    -0.77400
C273        C  0.65209361  0.85767759  0.42822063     1.03200
O274        O  0.65200190  0.88514561  0.34152383    -0.84700
O275        O  0.65183052  0.85220682  0.27154817    -0.81800
C276        C  0.64428126  0.83501458  0.24575146     0.98800
O277        O  0.63067611  0.81723050  0.26025286    -0.81800
O278        O  0.58412329  0.83798871  0.28327266    -0.84400
C279        C  0.56819564  0.85101012  0.30470173     1.03200
O280        O  0.57216448  0.85617296  0.34500877    -0.77200
O281        O  0.61108230  0.89048870  0.33875999    -0.77400
C282        C  0.63309459  0.89893477  0.33292432     1.03200
Cr283      Cr  0.65546929  0.84755287  0.33591792     1.93700
Cr284      Cr  0.60870214  0.81524523  0.31435733     1.93200
Cr285      Cr  0.60473518  0.86084859  0.37707975     1.39100
O286        O  0.62298452  0.84105875  0.34230870    -1.22500
O287        O  0.89008004  0.65924351  0.32873189    -0.84700
O288        O  0.85802967  0.66041192  0.25888845    -0.81800
C289        C  0.84149117  0.65302302  0.23188480     0.98700
O290        O  0.82234725  0.64075758  0.24521825    -0.81800
O291        O  0.84009296  0.59372009  0.26761771    -0.84400
C292        C  0.85256193  0.57713495  0.28801582     1.03300
O293        O  0.85872577  0.58050225  0.32808196    -0.77200
O294        O  0.89402970  0.61809569  0.32496911    -0.77400
C295        C  0.90315186  0.63981871  0.32011936     1.03200
O296        O  0.84785401  0.67012192  0.38681578    -0.84700
O297        O  0.81711725  0.67583657  0.31396071    -0.81800
C298        C  0.79628688  0.66600454  0.32481965     0.98800
O299        O  0.79464411  0.64234650  0.32883202    -0.81800
O300        O  0.81040490  0.59322331  0.34751986    -0.84400
C301        C  0.81729593  0.59187540  0.38790351     1.03200
O302        O  0.83550235  0.60501628  0.40168312    -0.77200
O303        O  0.87382006  0.63969022  0.40433313    -0.77400
C304        C  0.86160903  0.65925042  0.41493587     1.03200
Cr305      Cr  0.85261863  0.66397734  0.32266433     1.93700
Cr306      Cr  0.81871868  0.61862850  0.29954987     1.93200
Cr307      Cr  0.86404329  0.61236254  0.36213582     1.39100
O308        O  0.84503439  0.63163050  0.32794172    -1.22500
O309        O  0.36749487  0.86641073  0.61874944    -0.84700
O310        O  0.36682535  0.81755382  0.64898675    -0.81800
C311        C  0.37407935  0.79705195  0.66580166     0.98700
O312        O  0.39325285  0.79664876  0.69066321    -0.81800
O313        O  0.43323428  0.80852770  0.63436837    -0.84400
C314        C  0.44715934  0.82212636  0.61018646     1.03300
O315        O  0.44929791  0.84550388  0.61782511    -0.77200
O316        O  0.40497359  0.86439392  0.58808093    -0.77400
C317        C  0.38142912  0.86674460  0.58458118     1.03200
O318        O  0.37734755  0.88364154  0.70903253    -0.84700
O319        O  0.37304100  0.83508188  0.73921527    -0.81800
C320        C  0.39060869  0.83312774  0.76762297     0.98800
O321        O  0.41320532  0.83065412  0.75511967    -0.81800
O322        O  0.45564713  0.83754097  0.70413492    -0.84400
C323        C  0.46074933  0.86062714  0.70947524     1.03200
O324        O  0.44607278  0.87731980  0.69468910    -0.77200
O325        O  0.40324078  0.89960899  0.66015570    -0.77400
C326        C  0.38831350  0.90252338  0.69247315     1.03200
Cr327      Cr  0.37375207  0.85043588  0.67839261     1.93700
Cr328      Cr  0.42254624  0.82037720  0.69424467     1.93200
Cr329      Cr  0.42443025  0.86996661  0.64264507     1.39100
O330        O  0.40682048  0.84698775  0.67171297    -1.22500
O331        O  0.15939231  0.65037763  0.69061522    -0.84700
O332        O  0.20611868  0.65945675  0.72496939    -0.81800
C333        C  0.20834384  0.64249163  0.75426946     0.98700
O334        O  0.21271396  0.62000612  0.74290639    -0.81800
O335        O  0.20896732  0.57592780  0.69543687    -0.84400
C336        C  0.18577093  0.57025736  0.69899925     1.03300
O337        O  0.16937383  0.58389558  0.68064271    -0.77200
O338        O  0.14618955  0.62408986  0.63975219    -0.77400
C339        C  0.14157951  0.63898262  0.67161380     1.03200
O340        O  0.17757174  0.65977913  0.60121910    -0.84700
O341        O  0.22508443  0.66489888  0.63567920    -0.81800
C342        C  0.24563787  0.65994799  0.65463205     0.98800
O343        O  0.24744036  0.64075104  0.67943046    -0.81800
O344        O  0.23963099  0.59804961  0.62689571    -0.84400
C345        C  0.22771782  0.58218769  0.60367859     1.03200
O346        O  0.20407977  0.57957792  0.60763414    -0.77200
O347        O  0.18395139  0.62229195  0.57203013    -0.77400
C348        C  0.17909319  0.64537994  0.56754050     1.03200
Cr349      Cr  0.19251251  0.65610688  0.66262076     1.93700
Cr350      Cr  0.22524549  0.60982319  0.68405869     1.93200
Cr351      Cr  0.17752866  0.60395324  0.62743502     1.39100
O352        O  0.19855485  0.62339168  0.65771554    -1.22500
C353        C  0.34267887  0.73328294  0.68360715    -0.13700
C354        C  0.32882885  0.73055794  0.64413599     0.16700
C355        C  0.33146793  0.74887768  0.61061765     0.03000
C356        C  0.34661343  0.77016188  0.61793210    -0.12200
C357        C  0.35950177  0.77355334  0.65821434    -0.03300
C358        C  0.35785188  0.75457024  0.69100430     0.02200
C359        C  0.30827868  0.71148990  0.64217489     0.09000
N360        N  0.31856984  0.74620826  0.56914519     0.65400
H361        H  0.34834522  0.78403936  0.59197882     0.18300
N362        N  0.36964257  0.75762057  0.73346164     0.75900
H363        H  0.34028646  0.71977319  0.71010832     0.09800
C364        C  0.31263069  0.68556606  0.64929234     0.03500
C365        C  0.29211404  0.66888514  0.65314409    -0.05200
C366        C  0.26714512  0.67767002  0.64979842    -0.23600
C367        C  0.26292152  0.70369612  0.64275133     0.12800
C368        C  0.28337310  0.72017030  0.63864051    -0.12700
N369        N  0.33776148  0.67591045  0.65206782     0.64400
H370        H  0.29571285  0.64904927  0.65842000     0.12300
N371        N  0.23800280  0.71410268  0.64340290     0.61100
H372        H  0.27972443  0.74013122  0.63510651     0.08400
O373        O  0.38677071  0.74256704  0.74543503    -0.40400
O374        O  0.36080480  0.77327360  0.76105091    -0.39600
O375        O  0.30246866  0.76243003  0.55748928    -0.39600
O376        O  0.32545081  0.72941241  0.54192879    -0.37300
O377        O  0.22614988  0.71568055  0.67965344    -0.38200
O378        O  0.22934412  0.72486537  0.60933646    -0.34300
O379        O  0.34581764  0.66707470  0.68825304    -0.35700
O380        O  0.35063772  0.67316002  0.61715028    -0.40000
C381        C  0.68613268  0.72626929  0.33601881    -0.13700
C382        C  0.70956562  0.73154278  0.35622325     0.16700
C383        C  0.71331575  0.75547180  0.37583589     0.03000
C384        C  0.69499766  0.77429453  0.37114511    -0.12200
C385        C  0.67220842  0.76956790  0.34878122    -0.03300
C386        C  0.66738667  0.74505021  0.33258360     0.02200
C387        C  0.73141317  0.71412221  0.34942194     0.09000
N388        N  0.73602488  0.76117401  0.39967995     0.65400
H389        H  0.69874096  0.79271570  0.38430761     0.18300
N390        N  0.64472842  0.73959195  0.30865822     0.75900
H391        H  0.68306954  0.70834578  0.32024476     0.09800
C392        C  0.73081365  0.68836082  0.36091110     0.03500
C393        C  0.75184098  0.67284406  0.35214565    -0.05200
C394        C  0.77380431  0.68258982  0.33210323    -0.23600
C395        C  0.77407037  0.70842157  0.32015029     0.12800
C396        C  0.75308695  0.72368355  0.32867994    -0.12700
N397        N  0.70937103  0.67787349  0.38286185     0.64400
H398        H  0.75111878  0.65327172  0.36187296     0.12300
N399        N  0.79526438  0.71954869  0.29833307     0.61100
H400        H  0.75361891  0.74314913  0.31831328     0.08400
O401        O  0.64286131  0.74580839  0.26838392    -0.40400
O402        O  0.62811598  0.72564322  0.32580827    -0.39600
O403        O  0.74908585  0.78015976  0.38924512    -0.39600
O404        O  0.74151079  0.74889141  0.43418614    -0.37300
O405        O  0.79718320  0.71802853  0.25663967    -0.38200
O406        O  0.80990093  0.73391919  0.31974622    -0.34300
O407        O  0.69526399  0.66253187  0.36247546    -0.35700
O408        O  0.70684599  0.68081876  0.42422019    -0.40000
C409        C  0.48581638  0.81710275  0.50542971    -0.13700
C410        C  0.49976539  0.79521395  0.51353897     0.16700
C411        C  0.49392612  0.78017921  0.55052667     0.03000
C412        C  0.47530721  0.78819411  0.58065977    -0.12200
C413        C  0.46258945  0.81116058  0.57416538    -0.03300
C414        C  0.46741491  0.82520078  0.53529041     0.02200
C415        C  0.52331379  0.79188102  0.48815187     0.09000
N416        N  0.50750163  0.75735887  0.55859938     0.65400
H417        H  0.47177814  0.77720189  0.61021137     0.18300
N418        N  0.45442538  0.84827149  0.52640762     0.75900
H419        H  0.49036125  0.82884237  0.47719724     0.09800
C420        C  0.52279351  0.78580358  0.44273815     0.03500
C421        C  0.54395588  0.79069067  0.41636557    -0.05200
C422        C  0.56557703  0.80224554  0.43457324    -0.23600
C423        C  0.56686418  0.80595528  0.48104446     0.12800
C424        C  0.54576342  0.80070412  0.50737233    -0.12700
N425        N  0.50021744  0.77661012  0.42236434     0.64400
H426        H  0.54254160  0.78745039  0.38102761     0.12300
N427        N  0.58877062  0.81657228  0.50166749     0.61100
H428        H  0.54624520  0.80543910  0.54228860     0.08400
O429        O  0.43492729  0.84784569  0.50235880    -0.40400
O430        O  0.46526247  0.86904563  0.53407664    -0.39600
O431        O  0.50615119  0.73933179  0.53119781    -0.39600
O432        O  0.52189927  0.75566807  0.59184672    -0.37300
O433        O  0.58846739  0.83921335  0.51477985    -0.38200
O434        O  0.60669442  0.80234249  0.51313308    -0.34300
O435        O  0.48541946  0.79179471  0.40338680    -0.35700
O436        O  0.49713097  0.75317691  0.41728342    -0.40000
C437        C  0.72640050  0.34396814  0.67984573    -0.13700
C438        C  0.72737044  0.32544267  0.64663835     0.16700
C439        C  0.74575208  0.32720183  0.61312183     0.03000
C440        C  0.76386480  0.34648664  0.61477194    -0.12200
C441        C  0.76386401  0.36442533  0.64939310    -0.03300
C442        C  0.74428826  0.36345416  0.68139636     0.02200
C443        C  0.71107776  0.30287763  0.65073132     0.09000
N444        N  0.74664628  0.30909714  0.57788565     0.65400
H445        H  0.77839722  0.34693384  0.58965930     0.18300
N446        N  0.74329532  0.38091840  0.71762284     0.75900
H447        H  0.71239125  0.34265279  0.70577561     0.09800
C448        C  0.72008858  0.28124375  0.67245205     0.03500
C449        C  0.70433090  0.26032101  0.67788495    -0.05200
C450        C  0.67919832  0.26054084  0.66266897    -0.23600
C451        C  0.67021937  0.28233967  0.64064013     0.12800
C452        C  0.68619802  0.30326235  0.63487247    -0.12700
N453        N  0.74493699  0.28070046  0.69095468     0.64400
H454        H  0.71169758  0.24410756  0.69525585     0.12300
N455        N  0.64505543  0.28355390  0.62369776     0.61100
H456        H  0.67914215  0.31987609  0.61828370     0.08400
O457        O  0.73009198  0.40062892  0.71430675    -0.40400
O458        O  0.75215699  0.37474518  0.75494466    -0.39600
O459        O  0.73415802  0.31291648  0.54285746    -0.39600
O460        O  0.76281259  0.29163568  0.57878091    -0.37300
O461        O  0.62827783  0.29523570  0.64523053    -0.38200
O462        O  0.64047703  0.27610248  0.58466713    -0.34300
O463        O  0.74847832  0.28843966  0.73014771    -0.35700
O464        O  0.76225039  0.26878806  0.67122159    -0.40000
C465        C  0.80426259  0.55266642  0.49048215    -0.13700
C466        C  0.79666066  0.52975230  0.47136076     0.16700
C467        C  0.79291677  0.52835952  0.42503876     0.03000
C468        C  0.79782833  0.54959863  0.39861999    -0.12200
C469        C  0.80660395  0.57229243  0.41759781    -0.03300
C470        C  0.80928734  0.57380836  0.46427169     0.02200
C471        C  0.79625538  0.50720590  0.50042633     0.09000
N472        N  0.78499608  0.50534785  0.40423429     0.65400
H473        H  0.79600531  0.54790179  0.36310525     0.18300
N474        N  0.81813022  0.59630224  0.48563353     0.75900
H475        H  0.80738739  0.55383351  0.52580830     0.09800
C476        C  0.81440481  0.48784257  0.49551031     0.03500
C477        C  0.81726012  0.46995128  0.52918582    -0.05200
C478        C  0.80317207  0.47150475  0.56850235    -0.23600
C479        C  0.78405598  0.48977018  0.57236253     0.12800
C480        C  0.78052800  0.50729439  0.53808067    -0.12700
N481        N  0.83198647  0.48761571  0.45929890     0.64400
H482        H  0.83211694  0.45608244  0.52634989     0.12300
N483        N  0.77027567  0.49270809  0.61283060     0.61100
H484        H  0.76687018  0.52224869  0.54244457     0.08400
O485        O  0.83720617  0.59540459  0.51071803    -0.40400
O486        O  0.80477157  0.61600102  0.48490166    -0.39600
O487        O  0.76406884  0.49562274  0.41450753    -0.39600
O488        O  0.79741596  0.49634122  0.37211741    -0.37300
O489        O  0.74696327  0.48788461  0.61370421    -0.38200
O490        O  0.78044773  0.50368894  0.64552560    -0.34300
O491        O  0.84606960  0.50645345  0.45279963    -0.35700
O492        O  0.83671823  0.46717369  0.43933081    -0.40000
C493        C  0.25690057  0.48969960  0.46087211    -0.13700
C494        C  0.24056879  0.49985731  0.49288220     0.16700
C495        C  0.21570116  0.49078483  0.49596387     0.03000
C496        C  0.20701168  0.47291343  0.46563505    -0.12200
C497        C  0.22269571  0.46355662  0.43180403    -0.03300
C498        C  0.24819251  0.47147686  0.43036276     0.02200
C499        C  0.24754975  0.52256395  0.51851339     0.09000
N500        N  0.19841807  0.50107474  0.52767987     0.65400
H501        H  0.18752258  0.46700311  0.46771301     0.18300
N502        N  0.26491787  0.46276429  0.39640711     0.75900
H503        H  0.27593510  0.49687043  0.45809473     0.09800
C504        C  0.25338976  0.52091731  0.56400070     0.03500
C505        C  0.24985969  0.54201723  0.59147703    -0.05200
C506        C  0.24091479  0.56476741  0.57379723    -0.23600
C507        C  0.23791524  0.56713499  0.52758666     0.12800
C508        C  0.24121853  0.54601116  0.50024976    -0.12700
N509        N  0.26064808  0.49738717  0.58315466     0.64400
H510        H  0.25193634  0.53998987  0.62707702     0.12300
N511        N  0.22906030  0.59019151  0.50867188     0.61100
H512        H  0.23652745  0.54735302  0.46531434     0.08400
O513        O  0.28481524  0.45119182  0.40706741    -0.40400
O514        O  0.26238646  0.47076199  0.35723446    -0.39600
O515        O  0.18364732  0.51857111  0.51630423    -0.39600
O516        O  0.19494046  0.48990916  0.56408629    -0.37300
O517        O  0.24413176  0.60838635  0.50363744    -0.38200
O518        O  0.20734604  0.59119566  0.49154562    -0.34300
O519        O  0.28331054  0.49022926  0.58056399    -0.35700
O520        O  0.24543745  0.48555101  0.60765782    -0.40000
C521        C  0.31930350  0.28615829  0.40522096    -0.13700
C522        C  0.31479728  0.30002676  0.36624525     0.16700
C523        C  0.33073576  0.29607779  0.32925008     0.03000
C524        C  0.35005866  0.27802928  0.33124878    -0.12200
C525        C  0.35338231  0.26297815  0.36905153    -0.03300
C526        C  0.33819634  0.26757876  0.40668530     0.02200
C527        C  0.29348202  0.31848767  0.36448103     0.09000
N528        N  0.32638736  0.30886833  0.28819600     0.65400
H529        H  0.36121898  0.27447921  0.30192805     0.18300
N530        N  0.34207900  0.25389710  0.44692249     0.75900
H531        H  0.30799726  0.28955532  0.43436788     0.09800
C532        C  0.26865611  0.31156512  0.37630075     0.03500
C533        C  0.24889719  0.32903629  0.37232981    -0.05200
C534        C  0.25310739  0.35350884  0.35584607    -0.23600
C535        C  0.27813718  0.36069697  0.34566498     0.12800
C536        C  0.29796980  0.34331908  0.35026856    -0.12700
N537        N  0.26287060  0.28642435  0.39006699     0.64400
H538        H  0.23002187  0.32294990  0.38030892     0.12300
N539        N  0.28392289  0.38568456  0.33131976     0.61100
H540        H  0.31692153  0.34923526  0.34255156     0.08400
O541        O  0.32709420  0.23640403  0.45739834    -0.40400
O542        O  0.35758974  0.26213666  0.47529864    -0.39600
O543        O  0.34364229  0.32210760  0.27123645    -0.39600
O544        O  0.30649873  0.30453989  0.26635581    -0.37300
O545        O  0.28736801  0.40284264  0.35982153    -0.38200
O546        O  0.28982875  0.38956610  0.29134263    -0.34300
O547        O  0.25409335  0.28256849  0.42839291    -0.35700
O548        O  0.26343139  0.26860397  0.36217481    -0.40000
C549        C  0.55039606  0.23489653  0.51352575    -0.13700
C550        C  0.52771448  0.24216854  0.53394780     0.16700
C551        C  0.52711914  0.24578376  0.58019652     0.03000
C552        C  0.54837151  0.23993651  0.60573562    -0.12200
C553        C  0.57017233  0.22978601  0.58589007    -0.03300
C554        C  0.57163492  0.22870795  0.53911045     0.02200
C555        C  0.50400583  0.23767903  0.50947364     0.09000
N556        N  0.50410602  0.25235199  0.60209553     0.65400
H557        H  0.54682791  0.24100504  0.64151299     0.18300
N558        N  0.59405503  0.22018039  0.51730869     0.75900
H559        H  0.55093881  0.23193689  0.47797186     0.09800
C560        C  0.49375457  0.25471240  0.47860463     0.03500
C561        C  0.47338555  0.24713103  0.45158214    -0.05200
C562        C  0.46353293  0.22251632  0.45449339    -0.23600
C563        C  0.47366901  0.20585923  0.48681482     0.12800
C564        C  0.49335762  0.21377948  0.51403513    -0.12700
N565        N  0.50420671  0.27938264  0.47367456     0.64400
H566        H  0.46609791  0.26005674  0.42701010     0.12300
N567        N  0.46548852  0.18021053  0.49090985     0.61100
H568        H  0.50145780  0.20052015  0.53731847     0.08400
O569        O  0.61315549  0.23437150  0.51569097    -0.40400
O570        O  0.59386571  0.19981036  0.49548033    -0.39600
O571        O  0.48927306  0.23520279  0.61477615    -0.39600
O572        O  0.50053730  0.27477788  0.61476120    -0.37300
O573        O  0.45454820  0.17342735  0.52609153    -0.38200
O574        O  0.47563804  0.16356752  0.46671005    -0.34300
O575        O  0.51509839  0.28538431  0.43799621    -0.35700
O576        O  0.50002736  0.29601711  0.50283839    -0.40000
C577        C  0.67074561  0.01024144  0.71758121    -0.13700
C578        C  0.66187749  0.02990322  0.74477263     0.16700
C579        C  0.65894574  0.02560389  0.79053572     0.03000
C580        C  0.66503822  0.00209386  0.80845120    -0.12200
C581        C  0.67424573  0.98231486  0.78164826    -0.03300
C582        C  0.67670431  0.98645251  0.73534831     0.02200
C583        C  0.65557855  0.05484483  0.72527572     0.09000
N584        N  0.65085206  0.04536633  0.81963969     0.65400
H585        H  0.66315650  0.99963027  0.84397244     0.18300
N586        N  0.68445838  0.96670254  0.70571676     0.75900
H587        H  0.67251793  0.01324771  0.68216569     0.09800
C588        C  0.67408198  0.06951281  0.70401288     0.03500
C589        C  0.66806340  0.09369511  0.68881066    -0.05200
C590        C  0.64364872  0.10381666  0.69391668    -0.23600
C591        C  0.62474138  0.08846230  0.71312994     0.12800
C592        C  0.63093572  0.06435741  0.72890769    -0.12700
N593        N  0.69936563  0.06049702  0.69932425     0.64400
H594        H  0.68294173  0.10485260  0.67359147     0.12300
N595        N  0.59929875  0.09708218  0.71742186     0.61100
H596        H  0.61632322  0.05292259  0.74430606     0.08400
O597        O  0.70136583  0.97090650  0.67718187    -0.40400
O598        O  0.67161355  0.94669141  0.70298078    -0.39600
O599        O  0.62897581  0.04475178  0.83612848    -0.39600
O600        O  0.66664213  0.06132483  0.83374448    -0.37300
O601        O  0.58423296  0.09458334  0.68521901    -0.38200
O602        O  0.59087184  0.10322541  0.75512038    -0.34300
O603        O  0.70744492  0.05399202  0.66157160    -0.35700
O604        O  0.71446439  0.06193631  0.73166052    -0.40000
C605        C  0.64663731  0.85669290  0.03893333    -0.13700
C606        C  0.66747951  0.84621459  0.06052993     0.16700
C607        C  0.69052958  0.84349125  0.03772312     0.03000
C608        C  0.69257512  0.85225926  0.99401570    -0.12200
C609        C  0.67185748  0.86358419  0.97286959    -0.03300
C610        C  0.64856957  0.86526460  0.99542092     0.02200
C611        C  0.66493422  0.84078955  0.10817270     0.09000
N612        N  0.71184747  0.83190123  0.05850326     0.65400
H613        H  0.71049317  0.85071714  0.97694674     0.18300
N614        N  0.62666117  0.87560479  0.97459316     0.75900
H615        H  0.62888119  0.85877549  0.05640360     0.09800
C616        C  0.67583785  0.85686435  0.14012866     0.03500
C617        C  0.66957921  0.85396272  0.18487687    -0.05200
C618        C  0.65201819  0.83561083  0.19844334    -0.23600
C619        C  0.64196743  0.81884381  0.16628362     0.12800
C620        C  0.64848386  0.82161656  0.12157359    -0.12700
N621        N  0.69167974  0.87747398  0.12733476     0.64400
H622        H  0.67768404  0.86691135  0.20871506     0.12300
N623        N  0.62432932  0.79958597  0.17791745     0.61100
H624        H  0.63991903  0.80941566  0.09700143     0.08400
O625        O  0.61774609  0.89629509  0.98824928    -0.40400
O626        O  0.61401834  0.86224096  0.94787347    -0.39600
O627        O  0.71095902  0.80886166  0.06878703    -0.39600
O628        O  0.73258646  0.84355044  0.06082331    -0.37300
O629        O  0.60097048  0.80384952  0.17480248    -0.38200
O630        O  0.63196779  0.77729844  0.18369925    -0.34300
O631        O  0.68237147  0.89582194  0.10634036    -0.35700
O632        O  0.71370405  0.87926429  0.14302121    -0.40000
C633        C  0.70669847  0.88482566  0.62181712    -0.13700
C634        C  0.68599451  0.87049021  0.60781433     0.16700
C635        C  0.67011754  0.85919018  0.63927515     0.03000
C636        C  0.67465005  0.86301490  0.68442657    -0.12200
C637        C  0.69497384  0.87805275  0.69908330    -0.03300
C638        C  0.71159840  0.88838203  0.66711785     0.02200
C639        C  0.68027378  0.86822058  0.56025390     0.09000
N640        N  0.64873701  0.84459062  0.62566086     0.65400
H641        H  0.66169506  0.85466613  0.70801591     0.18300
N642        N  0.73348557  0.90244126  0.67985228     0.75900
H643        H  0.71909886  0.89326565  0.59741235     0.09800
C644        C  0.66762265  0.88777311  0.53826010     0.03500
C645        C  0.65918375  0.88410223  0.49485841    -0.05200
C646        C  0.66322123  0.86104322  0.47275034    -0.23600
C647        C  0.67687406  0.84173810  0.49435714     0.12800
C648        C  0.68531126  0.84553343  0.53798339    -0.12700
N649        N  0.66216898  0.91101423  0.56046899     0.64400
H650        H  0.64904538  0.89920283  0.47873258     0.12300
N651        N  0.68101117  0.81773284  0.47373331     0.61100
H652        H  0.69484736  0.83042260  0.55516769     0.08400
O653        O  0.73531539  0.92538728  0.66936415    -0.40400
O654        O  0.75263984  0.89095391  0.69435823    -0.39600
O655        O  0.64949330  0.82083157  0.62759418    -0.39600
O656        O  0.62915922  0.85540554  0.61131293    -0.37300
O657        O  0.70323087  0.80956098  0.46915151    -0.38200
O658        O  0.66261860  0.80303724  0.46720264    -0.34300
O659        O  0.67648455  0.92978958  0.55524872    -0.35700
O660        O  0.64186570  0.91346855  0.58192501    -0.40000
C661        C  0.56279991  0.90046376  0.81664815    -0.13700
C662        C  0.55824362  0.88084962  0.78641300     0.16700
C663        C  0.57827684  0.86511095  0.77300592     0.03000
C664        C  0.60249914  0.86908788  0.79019703    -0.12200
C665        C  0.60720316  0.88884768  0.82025289    -0.03300
C666        C  0.58705366  0.90447180  0.83389595     0.02200
C667        C  0.53240377  0.87684148  0.76946035     0.09000
N668        N  0.57450313  0.84570353  0.74057820     0.65400
H669        H  0.61781323  0.85719412  0.77895893     0.18300
N670        N  0.59062134  0.92353627  0.86700296     0.75900
H671        H  0.54738418  0.91231934  0.82754322     0.09800
C672        C  0.51766453  0.85646403  0.78433654     0.03500
C673        C  0.49417716  0.85178394  0.76479159    -0.05200
C674        C  0.48479034  0.86746306  0.73114067    -0.23600
C675        C  0.49931006  0.88827364  0.71705809     0.12800
C676        C  0.52292489  0.89286417  0.73649097    -0.12700
N677        N  0.52614834  0.84067582  0.81975581     0.64400
H678        H  0.48311235  0.83587507  0.77620768     0.12300
N679        N  0.49121037  0.90370969  0.68091011     0.61100
H680        H  0.53435144  0.90840621  0.72462891     0.08400
O681        O  0.59361665  0.91720345  0.90700630    -0.40400
O682        O  0.58644118  0.94634497  0.85771858    -0.39600
O683        O  0.57567472  0.85110930  0.69985694    -0.39600
O684        O  0.57508435  0.82287807  0.75224893    -0.37300
O685        O  0.49123138  0.89500003  0.64183488    -0.38200
O686        O  0.48524491  0.92644083  0.68767651    -0.34300
O687        O  0.52694551  0.84934703  0.85882139    -0.35700
O688        O  0.52863188  0.81726050  0.81343499    -0.40000
C689        C  0.02674910  0.68084024  0.70685012    -0.13700
C690        C  0.03818042  0.65875073  0.72245554     0.16700
C691        C  0.02557093  0.64383814  0.75388408     0.03000
C692        C  0.00203235  0.65143267  0.77013597    -0.12200
C693        C  0.99092324  0.67418657  0.75623124    -0.03300
C694        C  0.00333578  0.68872880  0.72357573     0.02200
C695        C  0.06436668  0.65291889  0.70925072     0.09000
N696        N  0.03698279  0.62145280  0.77092276     0.65400
H697        H  0.99303777  0.64004955  0.79527818     0.18300
N698        N  0.99262720  0.71166425  0.70740437     0.75900
H699        H  0.03642411  0.69240384  0.68276196     0.09800
C700        C  0.07007489  0.64210709  0.66778136     0.03500
C701        C  0.09527240  0.63739545  0.65629418    -0.05200
C702        C  0.11509855  0.64364644  0.68552191    -0.23600
C703        C  0.10914821  0.65458542  0.72717494     0.12800
C704        C  0.08394722  0.65899920  0.73863553    -0.12700
N705        N  0.05046203  0.63580901  0.63709930     0.64400
H706        H  0.09930154  0.62913982  0.62419017     0.12300
N707        N  0.12838095  0.66123870  0.75841220     0.61100
H708        H  0.07962654  0.66742054  0.77050493     0.08400
O709        O  0.00110295  0.73255747  0.72101611    -0.40400
O710        O  0.97809170  0.71107861  0.67420985    -0.39600
O711        O  0.04910215  0.62229275  0.80698850    -0.39600
O712        O  0.03227158  0.60040822  0.75304777    -0.37300
O713        O  0.13603904  0.68374811  0.76067299    -0.38200
O714        O  0.13483959  0.64571139  0.78797089    -0.34300
O715        O  0.04589064  0.65021260  0.60481875    -0.35700
O716        O  0.04028909  0.61430712  0.63857900    -0.40000
C717        C  0.84757032  0.80964715  0.81537402    -0.13700
C718        C  0.83109170  0.80916809  0.85188009     0.16700
C719        C  0.83377982  0.78987465  0.88364618     0.03000
C720        C  0.85154503  0.77068885  0.87710065    -0.12200
C721        C  0.86706656  0.77023511  0.83926842    -0.03300
C722        C  0.86552845  0.79049078  0.80893601     0.02200
C723        C  0.80858303  0.82596152  0.85222424     0.09000
N724        N  0.81800382  0.78907962  0.92214551     0.65400
H725        H  0.85279456  0.75584383  0.90130654     0.18300
N726        N  0.88059339  0.79095138  0.76961201     0.75900
H727        H  0.84542127  0.82394568  0.79029079     0.09800
C728        C  0.81037553  0.85246550  0.84982194     0.03500
C729        C  0.78834419  0.86718926  0.84729151    -0.05200
C730        C  0.76429581  0.85589244  0.84634588    -0.23600
C731        C  0.76270378  0.82923873  0.84862080     0.12800
C732        C  0.78464463  0.81472530  0.85149154    -0.12700
N733        N  0.83440473  0.86469059  0.84982437     0.64400
H734        H  0.79012921  0.88746956  0.84520178     0.12300
N735        N  0.73898003  0.81639273  0.84751520     0.61100
H736        H  0.78294906  0.79440154  0.85202305     0.08400
O737        O  0.89991297  0.80483775  0.76802961    -0.40400
O738        O  0.87278843  0.78020327  0.73474419    -0.39600
O739        O  0.80326254  0.77067929  0.92793648    -0.39600
O740        O  0.82137258  0.80480953  0.95314229    -0.37300
O741        O  0.73106947  0.80715850  0.81140057    -0.38200
O742        O  0.72825827  0.81053913  0.88342730    -0.34300
O743        O  0.84261339  0.87448858  0.81454582    -0.35700
O744        O  0.84535689  0.86926947  0.88618898    -0.40000
C745        C  0.85173605  0.67831911  0.01664109    -0.13700
C746        C  0.86903687  0.67363539  0.05077994     0.16700
C747        C  0.89501416  0.67230920  0.04094700     0.03000
C748        C  0.90322579  0.67590885  0.99722757    -0.12200
C749        C  0.88590552  0.68011143  0.96256189    -0.03300
C750        C  0.85989671  0.68163784  0.97283283     0.02200
C751        C  0.85958944  0.66995150  0.09646391     0.09000
N752        N  0.91311756  0.66595462  0.07446418     0.65400
H753        H  0.92315375  0.67438499  0.99020594     0.18300
N754        N  0.84150463  0.68705079  0.93948167     0.75900
H755        H  0.83183640  0.67957413  0.02412142     0.09800
C756        C  0.86542212  0.68714564  0.13072276     0.03500
C757        C  0.85819170  0.68173315  0.17429271    -0.05200
C758        C  0.84506237  0.65945055  0.18456333    -0.23600
C759        C  0.83830753  0.64282622  0.14988828     0.12800
C760        C  0.84564334  0.64818050  0.10621716    -0.12700
N761        N  0.87862446  0.71013675  0.12176593     0.64400
H762        H  0.86320717  0.69490201  0.20043394     0.12300
N763        N  0.82587557  0.61950549  0.15885206     0.61100
H764        H  0.84121377  0.63484199  0.08000819     0.08400
O765        O  0.83747758  0.70962179  0.92839590    -0.40400
O766        O  0.82655922  0.66996837  0.92669318    -0.39600
O767        O  0.91174598  0.64489494  0.09373738    -0.39600
O768        O  0.93250381  0.67947087  0.07985353    -0.37300
O769        O  0.80208117  0.61867907  0.15966580    -0.38200
O770        O  0.83834643  0.59923727  0.15808491    -0.34300
O771        O  0.86829866  0.72688530  0.09826807    -0.35700
O772        O  0.89860272  0.71532879  0.14276667    -0.40000
C773        C  0.86445571  0.70228182  0.51595668    -0.13700
C774        C  0.86934581  0.68449600  0.54919648     0.16700
C775        C  0.87076985  0.65875221  0.53851217     0.03000
C776        C  0.86847502  0.65112245  0.49439368    -0.12200
C777        C  0.86378822  0.66876279  0.46070980    -0.03300
C778        C  0.86144755  0.69455286  0.47171322     0.02200
C779        C  0.87556477  0.69303597  0.59424104     0.09000
N780        N  0.87462391  0.64018353  0.57222445     0.65400
H781        H  0.87001360  0.63136901  0.48657993     0.18300
N782        N  0.85761467  0.71319902  0.43821556     0.75900
H783        H  0.86372408  0.72207444  0.52417802     0.09800
C784        C  0.90082740  0.69682741  0.60664888     0.03500
C785        C  0.90661376  0.70316321  0.65043767    -0.05200
C786        C  0.88751811  0.70543583  0.68267158    -0.23600
C787        C  0.86201138  0.70236207  0.66957171     0.12800
C788        C  0.85629558  0.69609159  0.62548603    -0.12700
N789        N  0.92090043  0.69337585  0.57546833     0.64400
H790        H  0.92618291  0.70527051  0.65938314     0.12300
N791        N  0.84169652  0.70535147  0.70037516     0.61100
H792        H  0.83690015  0.69325923  0.61575542     0.08400
O793        O  0.87616909  0.72118602  0.41609106    -0.40400
O794        O  0.83653161  0.72410925  0.43500261    -0.39600
O795        O  0.85729854  0.63570816  0.59983410    -0.39600
O796        O  0.89366825  0.62591961  0.57064021    -0.37300
O797        O  0.83541621  0.72717754  0.71307921    -0.38200
O798        O  0.82763292  0.68683415  0.70925444    -0.34300
O799        O  0.93312378  0.71226360  0.56192112    -0.35700
O800        O  0.92931860  0.67149576  0.56805781    -0.40000
C801        C  0.87092737  0.58468299  0.75190480    -0.13700
C802        C  0.87775786  0.56501077  0.78060636     0.16700
C803        C  0.89242090  0.57068450  0.81841625     0.03000
C804        C  0.89926668  0.59576244  0.82761789    -0.12200
C805        C  0.89178357  0.61564457  0.79960677    -0.03300
C806        C  0.87783644  0.60972614  0.76082284     0.02200
C807        C  0.87022407  0.53870294  0.76895620     0.09000
N808        N  0.89978432  0.55131677  0.84865847     0.65400
H809        H  0.90994038  0.59967939  0.85738966     0.18300
N810        N  0.87104651  0.62871615  0.72937564     0.75900
H811        H  0.86058862  0.58051965  0.72188406     0.09800
C812        C  0.84485593  0.53263025  0.75974461     0.03500
C813        C  0.83862395  0.50891748  0.74227639    -0.05200
C814        C  0.85726498  0.49063131  0.73363474    -0.23600
C815        C  0.88262534  0.49629848  0.74506333     0.12800
C816        C  0.88881255  0.52017071  0.76244824    -0.12700
N817        N  0.82513803  0.55051258  0.76759740     0.64400
H818        H  0.81909884  0.50511339  0.73459244     0.12300
N819        N  0.90252180  0.47844962  0.73834908     0.61100
H820        H  0.90833359  0.52459339  0.76887188     0.08400
O821        O  0.84806651  0.63352789  0.72237209    -0.40400
O822        O  0.88759283  0.63748538  0.70354918    -0.39600
O823        O  0.92264610  0.54479092  0.85110637    -0.39600
O824        O  0.88434412  0.54367478  0.87751071    -0.37300
O825        O  0.91241745  0.47631249  0.70040956    -0.38200
O826        O  0.91379282  0.46937360  0.77158297    -0.34300
O827        O  0.81243540  0.55894336  0.73544161    -0.35700
O828        O  0.81823201  0.55522881  0.80685245    -0.40000
C829        C  0.02318934  0.37208756  0.20691993    -0.13700
C830        C  0.02601503  0.36910254  0.25292518     0.16700
C831        C  0.00487654  0.36197995  0.27833115     0.03000
C832        C  0.98166725  0.35720778  0.25739511    -0.12200
C833        C  0.97884773  0.35971263  0.21110855    -0.03300
C834        C  0.99998591  0.36759269  0.18592737     0.02200
C835        C  0.05122513  0.37351265  0.27344064     0.09000
N836        N  0.00685609  0.35880250  0.32529363     0.65400
H837        H  0.96582045  0.35139356  0.27756675     0.18300
N838        N  0.99846823  0.37072696  0.13888210     0.75900
H839        H  0.03914976  0.37798368  0.18710000     0.09800
C840        C  0.07246335  0.35958020  0.25962301     0.03500
C841        C  0.09636604  0.36527272  0.27674929    -0.05200
C842        C  0.09986609  0.38466309  0.30825134    -0.23600
C843        C  0.07839453  0.39834890  0.32274577     0.12800
C844        C  0.05444782  0.39279776  0.30502723    -0.12700
N845        N  0.06999383  0.33926498  0.22856175     0.64400
H846        H  0.11225708  0.35423707  0.26530337     0.12300
N847        N  0.08049200  0.41823602  0.35470842     0.61100
H848        H  0.03836395  0.40389019  0.31546938     0.08400
O849        O  0.00590187  0.35328032  0.11343999    -0.40400
O850        O  0.99352959  0.39216967  0.12302852    -0.39600
O851        O  0.99855227  0.37574331  0.35094956    -0.39600
O852        O  0.01263033  0.33750471  0.34085224    -0.37300
O853        O  0.07962390  0.41311481  0.39556630    -0.38200
O854        O  0.07821012  0.44084052  0.34239742    -0.34300
O855        O  0.07909982  0.34138724  0.19004787    -0.35700
O856        O  0.06246473  0.31799357  0.24175945    -0.40000
C857        C  0.82073552  0.36156703  0.97473854    -0.13700
C858        C  0.83665726  0.36795681  0.93944053     0.16700
C859        C  0.86255826  0.37172335  0.94735150     0.03000
C860        C  0.87208961  0.36949017  0.99028765    -0.12200
C861        C  0.85628419  0.36361948  0.02614691    -0.03300
C862        C  0.83029660  0.35936007  0.01804790     0.02200
C863        C  0.82638874  0.37243140  0.89464329     0.09000
N864        N  0.87922040  0.37861220  0.91209657     0.65400
H865        H  0.89222195  0.37275608  0.99568646     0.18300
N866        N  0.81323093  0.35425292  0.05362089     0.75900
H867        H  0.80058460  0.35891066  0.96875537     0.09800
C868        C  0.83045030  0.35496026  0.86013065     0.03500
C869        C  0.82714164  0.36248820  0.81598285    -0.05200
C870        C  0.81934258  0.38717353  0.80557097    -0.23600
C871        C  0.81327379  0.40389356  0.84071090     0.12800
C872        C  0.81710826  0.39648036  0.88476616    -0.12700
N873        N  0.83869151  0.32980745  0.86950898     0.64400
H874        H  0.83139602  0.34913651  0.78983853     0.12300
N875        N  0.80378239  0.42865499  0.83239113     0.61100
H876        H  0.81398390  0.40994410  0.91125394     0.08400
O877        O  0.80301014  0.33282518  0.05662285    -0.40400
O878        O  0.80577714  0.37205435  0.07826922    -0.39600
O879        O  0.87915334  0.40089427  0.89749100    -0.39600
O880        O  0.89584610  0.36326928  0.89897389    -0.37300
O881        O  0.78048152  0.43179943  0.82570501    -0.38200
O882        O  0.81785831  0.44758317  0.83826670    -0.34300
O883        O  0.82523859  0.31562274  0.89334193    -0.35700
O884        O  0.85778177  0.32081918  0.85003399    -0.40000
C885        C  0.87898666  0.33744991  0.38053906    -0.13700
C886        C  0.87067080  0.36153657  0.39371285     0.16700
C887        C  0.86598402  0.37983770  0.36086523     0.03000
C888        C  0.86968658  0.37396311  0.31609697    -0.12200
C889        C  0.87774881  0.34983941  0.30250095    -0.03300
C890        C  0.88248521  0.33146499  0.33541235     0.02200
C891        C  0.86841748  0.36802535  0.44171477     0.09000
N892        N  0.85696627  0.40446700  0.37231930     0.65400
H893        H  0.86597603  0.38846096  0.29191836     0.18300
N894        N  0.89081523  0.30667182  0.32382615     0.75900
H895        H  0.88316115  0.32341664  0.40527043     0.09800
C896        C  0.85378215  0.35351435  0.47135648     0.03500
C897        C  0.85137178  0.36110742  0.51590325    -0.05200
C898        C  0.86282565  0.38339588  0.53116925    -0.23600
C899        C  0.87819283  0.39733309  0.50195423     0.12800
C900        C  0.88111169  0.38941755  0.45793913    -0.12700
N901        N  0.84004387  0.33192554  0.45618322     0.64400
H902        H  0.83942898  0.35035033  0.53788209     0.12300
N903        N  0.89136220  0.41936787  0.51673778     0.61100
H904        H  0.89319400  0.40016707  0.43623567     0.08400
O905        O  0.87498202  0.28896726  0.32073420    -0.40400
O906        O  0.91410727  0.30170724  0.32351884    -0.39600
O907        O  0.86998148  0.42366580  0.36294455    -0.39600
O908        O  0.83473322  0.40721439  0.38653057    -0.37300
O909        O  0.91221015  0.41713467  0.53662856    -0.38200
O910        O  0.88392215  0.44091730  0.50481302    -0.34300
O911        O  0.84515405  0.31039815  0.47149944    -0.35700
O912        O  0.82064497  0.33482140  0.43239999    -0.40000
C913        C  0.90084325  0.47407282  0.19341779    -0.13700
C914        C  0.87870766  0.47922249  0.21741172     0.16700
C915        C  0.86108043  0.45979229  0.22446687     0.03000
C916        C  0.86524919  0.43590974  0.20621832    -0.12200
C917        C  0.88709641  0.43070992  0.18139162    -0.03300
C918        C  0.90517202  0.44998623  0.17540818     0.02200
C919        C  0.87331035  0.50521805  0.23282470     0.09000
N920        N  0.83908005  0.46393256  0.25100675     0.65400
H921        H  0.85152440  0.42125677  0.21223882     0.18300
N922        N  0.92723224  0.44587420  0.14907488     0.75900
H923        H  0.91431798  0.48894129  0.18745552     0.09800
C924        C  0.88886808  0.51740696  0.26402427     0.03500
C925        C  0.88212182  0.54122156  0.28023618    -0.05200
C926        C  0.85970820  0.55309236  0.26638522    -0.23600
C927        C  0.84427499  0.54104845  0.23436338     0.12800
C928        C  0.85155424  0.51748267  0.21728094    -0.12700
N929        N  0.91077103  0.50521455  0.28149651     0.64400
H930        H  0.89409275  0.55012741  0.30469902     0.12300
N931        N  0.82032306  0.55131372  0.22140276     0.61100
H932        H  0.83958470  0.50812587  0.19337826     0.08400
O933        O  0.94867447  0.44531155  0.16731006    -0.40400
O934        O  0.92562283  0.44626260  0.10726871    -0.39600
O935        O  0.81748622  0.46325105  0.23333754    -0.39600
O936        O  0.84103869  0.46513164  0.29273242    -0.37300
O937        O  0.81357034  0.55041621  0.18121686    -0.38200
O938        O  0.80417578  0.55684339  0.25067616    -0.34300
O939        O  0.93245176  0.51313538  0.27127176    -0.35700
O940        O  0.90842569  0.48904998  0.31187044    -0.40000
C941        C  0.74708011  0.00466264  0.95290004    -0.13700
C942        C  0.73569641  0.00537774  0.99492199     0.16700
C943        C  0.72168529  0.98437712  0.00953625     0.03000
C944        C  0.71851823  0.96355982  0.98137254    -0.12200
C945        C  0.72792258  0.96360823  0.93764811    -0.03300
C946        C  0.74344283  0.98396444  0.92429236     0.02200
C947        C  0.73554066  0.02914077  0.02095812     0.09000
N948        N  0.70832140  0.98492933  0.05093455     0.65400
H949        H  0.70669920  0.94824719  0.99262543     0.18300
N950        N  0.75451676  0.98465470  0.88107272     0.75900
H951        H  0.75787322  0.02069028  0.94154896     0.09800
C952        C  0.74699274  0.03085304  0.06315712     0.03500
C953        C  0.74084423  0.05096209  0.09161878    -0.05200
C954        C  0.72348034  0.06943289  0.07835915    -0.23600
C955        C  0.71371421  0.06883922  0.03475710     0.12800
C956        C  0.71975222  0.04866821  0.00654084    -0.12700
N957        N  0.76381078  0.01161777  0.07823942     0.64400
H958        H  0.74831690  0.05121299  0.12511735     0.12300
N959        N  0.69690789  0.08814426  0.01946643     0.61100
H960        H  0.71099175  0.04750248  0.97406303     0.08400
O961        O  0.77648394  0.97605415  0.87533187    -0.40400
O962        O  0.74418475  0.99736036  0.85072590    -0.39600
O963        O  0.69181701  0.00166719  0.05783301    -0.39600
O964        O  0.70985709  0.96645628  0.07711096    -0.37300
O965        O  0.70317642  0.11104716  0.02278303    -0.38200
O966        O  0.67683670  0.08233914  0.99925179    -0.34300
O967        O  0.78589822  0.01045547  0.06272643    -0.35700
O968        O  0.75795031  0.99825752  0.11125691    -0.40000
C969        C  0.66968518  0.01448871  0.28572470    -0.13700
C970        C  0.65232662  0.99895146  0.26339102     0.16700
C971        C  0.64008537  0.00805139  0.22516990     0.03000
C972        C  0.64558574  0.03227573  0.20942689    -0.12200
C973        C  0.66353602  0.04753885  0.23092328    -0.03300
C974        C  0.67525512  0.03869972  0.26991438     0.02200
C975        C  0.64716661  0.97330393  0.28054779     0.09000
N976        N  0.62320953  0.99229159  0.20052157     0.65400
H977        H  0.63670708  0.03868521  0.17916723     0.18300
N978        N  0.69177753  0.05462228  0.29500372     0.75900
H979        H  0.67867408  0.00789159  0.31573973     0.09800
C980        C  0.66631062  0.95496655  0.28160579     0.03500
C981        C  0.66138077  0.93113619  0.29938321    -0.05200
C982        C  0.63735460  0.92493119  0.31605317    -0.23600
C983        C  0.61813623  0.94345738  0.31503378     0.12800
C984        C  0.62317289  0.96738598  0.29725943    -0.12700
N985        N  0.69064939  0.96002696  0.26322000     0.64400
H986        H  0.67632074  0.91729328  0.29912916     0.12300
N987        N  0.59370125  0.93865990  0.33320913     0.61100
H988        H  0.60848375  0.98149122  0.29714716     0.08400
O989        O  0.71460747  0.04853145  0.30019449    -0.40400
O990        O  0.68270730  0.07271435  0.31717751    -0.39600
O991        O  0.59993855  0.99730405  0.19960271    -0.39600
O992        O  0.63192189  0.97521221  0.17557173    -0.37300
O993        O  0.58966677  0.94277518  0.37389220    -0.38200
O994        O  0.57542017  0.93380064  0.30768803    -0.34300
O995        O  0.70961327  0.96190572  0.28838727    -0.35700
O996        O  0.69362641  0.95989807  0.22164465    -0.40000
C997        C  0.79352588  0.19724783  0.19141559    -0.13700
C998        C  0.79312755  0.21448899  0.15627280     0.16700
C999        C  0.77423535  0.21247919  0.12356615     0.03000
C1000       C  0.75526922  0.19421810  0.12768856    -0.12200
C1001       C  0.75499324  0.17743459  0.16376813    -0.03300
C1002       C  0.77470835  0.17877778  0.19541373     0.02200
C1003       C  0.81089480  0.23605173  0.15688251     0.09000
N1004       N  0.77412583  0.22886997  0.08596873     0.65400
H1005       H  0.74062311  0.19330946  0.10276670     0.18300
N1006       N  0.77493125  0.16282751  0.23355755     0.75900
H1007       H  0.80782943  0.19885976  0.21685585     0.09800
C1008       C  0.80264249  0.26021722  0.16977680     0.03500
C1009       C  0.81970577  0.28035629  0.17072333    -0.05200
C1010       C  0.84536138  0.27690244  0.15999209    -0.23600
C1011       C  0.85351134  0.25254643  0.14685022     0.12800
C1012       C  0.83626235  0.23241940  0.14539391    -0.12700
N1013       N  0.77721513  0.26433810  0.18405980     0.64400
H1014       H  0.81285663  0.29862609  0.18118469     0.12300
N1015       N  0.87920549  0.24777437  0.13524858     0.61100
H1016       H  0.84270178  0.21388957  0.13552078     0.08400
O1017       O  0.76321609  0.16943831  0.26817085    -0.40400
O1018       O  0.78966354  0.14414787  0.23484380    -0.39600
O1019       O  0.78980595  0.22532870  0.05504518    -0.39600
O1020       O  0.75602660  0.24398299  0.08024649    -0.37300
O1021       O  0.89436165  0.23980137  0.16432842    -0.38200
O1022       O  0.88576165  0.24794328  0.09497829    -0.34300
O1023       O  0.77015804  0.25613479  0.22133102    -0.35700
O1024       O  0.76327038  0.27951919  0.16317698    -0.40000
C1025       C  0.65721809  0.20843466  0.89241385    -0.13700
C1026       C  0.66599898  0.18507566  0.90754625     0.16700
C1027       C  0.67228925  0.16612873  0.87676741     0.03000
C1028       C  0.66868790  0.17024375  0.83150028    -0.12200
C1029       C  0.65852872  0.19308480  0.81592850    -0.03300
C1030       C  0.65338653  0.21260297  0.84692541     0.02200
C1031       C  0.66478715  0.17907718  0.95521395     0.09000
N1032       N  0.68130447  0.14212444  0.89132025     0.65400
H1033       H  0.67300328  0.15503980  0.80873578     0.18300
N1034       N  0.64340505  0.23636860  0.83316547     0.75900
H1035       H  0.65217483  0.22297360  0.91604681     0.09800
C1036       C  0.68207524  0.18900012  0.98624728     0.03500
C1037       C  0.68076378  0.18132773  0.03073214    -0.05200
C1038       C  0.66266347  0.16358334  0.04412887    -0.23600
C1039       C  0.64478936  0.15458854  0.01339264     0.12800
C1040       C  0.64591730  0.16243680  0.96931727    -0.12700
N1041       N  0.70200737  0.20537939  0.97249252     0.64400
H1042       H  0.69486151  0.18791823  0.05409408     0.12300
N1043       N  0.62533182  0.13753804  0.02669356     0.61100
H1044       H  0.63222291  0.15523846  0.94575253     0.08400
O1045       O  0.65817097  0.25457238  0.82594724    -0.40400
O1046       O  0.61991941  0.24022238  0.83479411    -0.39600
O1047       O  0.66632978  0.12366143  0.89359555    -0.39600
O1048       O  0.70468398  0.13859150  0.89626019    -0.37300
O1049       O  0.60725722  0.14549746  0.05013045    -0.38200
O1050       O  0.62431990  0.11567381  0.01007383    -0.34300
O1051       O  0.70307780  0.22763629  0.98737928    -0.35700
O1052       O  0.72044341  0.19652183  0.95098543    -0.40000
C1053       C  0.67244613  0.14093948  0.47430298    -0.13700
C1054       C  0.69108937  0.15738100  0.45855382     0.16700
C1055       C  0.69895059  0.17773056  0.48536266     0.03000
C1056       C  0.68761204  0.18173284  0.52680251    -0.12200
C1057       C  0.66839279  0.16567484  0.54219839    -0.03300
C1058       C  0.66109425  0.14483876  0.51559308     0.02200
C1059       C  0.69872545  0.15509868  0.41147382     0.09000
N1060       N  0.71836781  0.19450527  0.47083335     0.65400
H1061       H  0.69372288  0.19759302  0.54669649     0.18300
N1062       N  0.64192311  0.12759720  0.52944296     0.75900
H1063       H  0.66584838  0.12561053  0.45361301     0.09800
C1064       C  0.70756205  0.13208341  0.39397199     0.03500
C1065       C  0.70826477  0.12843460  0.34797272    -0.05200
C1066       C  0.70033536  0.14747665  0.31868839    -0.23600
C1067       C  0.69324369  0.17119364  0.33641859     0.12800
C1068       C  0.69244979  0.17473629  0.38244306    -0.12700
N1069       N  0.71541550  0.11209534  0.42261199     0.64400
H1070       H  0.71476620  0.11052085  0.33528555     0.12300
N1071       N  0.68529556  0.19144588  0.30851457     0.61100
H1072       H  0.68527588  0.19233215  0.39547043     0.08400
O1073       O  0.64811764  0.10653342  0.54549778    -0.40400
O1074       O  0.61928057  0.13143894  0.51831634    -0.39600
O1075       O  0.71354770  0.21759134  0.46528622    -0.39600
O1076       O  0.74093363  0.18694952  0.46918874    -0.37300
O1077       O  0.66254909  0.19280329  0.29628709    -0.38200
O1078       O  0.69989688  0.20985850  0.30190940    -0.34300
O1079       O  0.70425669  0.09107037  0.42123632    -0.35700
O1080       O  0.73552469  0.11433644  0.44476620    -0.40000
C1081       C  0.55757685  0.13515006  0.21254723    -0.13700
C1082       C  0.55339751  0.15395389  0.24442726     0.16700
C1083       C  0.57384129  0.16887782  0.25906040     0.03000
C1084       C  0.59800439  0.16482194  0.24149046    -0.12200
C1085       C  0.60240286  0.14587575  0.20959054    -0.03300
C1086       C  0.58170932  0.13103460  0.19494887     0.02200
C1087       C  0.52741741  0.15829340  0.26102268     0.09000
N1088       N  0.57050698  0.18767940  0.29277859     0.65400
H1089       H  0.61343914  0.17638086  0.25340589     0.18300
N1090       N  0.58478659  0.11149348  0.16259577     0.75900
H1091       H  0.54193874  0.12373143  0.20095470     0.09800
C1092       C  0.51444311  0.18081704  0.25148255     0.03500
C1093       C  0.49087041  0.18533346  0.27085120    -0.05200
C1094       C  0.47943564  0.16750106  0.29887152    -0.23600
C1095       C  0.49195975  0.14440291  0.30663669     0.12800
C1096       C  0.51583174  0.14004379  0.28784033    -0.12700
N1097       N  0.52471977  0.19904110  0.22147301     0.64400
H1098       H  0.48136990  0.20287574  0.26363123     0.12300
N1099       N  0.48141070  0.12576251  0.33529751     0.61100
H1100       H  0.52563637  0.12267766  0.29511474     0.08400
O1101       O  0.58020722  0.11600618  0.12227607    -0.40400
O1102       O  0.58778261  0.08899627  0.17506831    -0.39600
O1103       O  0.56511652  0.18108616  0.33186403    -0.39600
O1104       O  0.57679428  0.21023307  0.28531738    -0.37300
O1105       O  0.46908228  0.10759885  0.31893464    -0.38200
O1106       O  0.48774617  0.12524630  0.37568699    -0.34300
O1107       O  0.53018902  0.19258705  0.18225273    -0.35700
O1108       O  0.52488637  0.22212617  0.23190616    -0.40000
C1109       C  0.33840686  0.02308144  0.28439447    -0.13700
C1110       C  0.36050060  0.03573034  0.27184161     0.16700
C1111       C  0.37726760  0.02413271  0.24193971     0.03000
C1112       C  0.37114046  0.00071628  0.22340487    -0.12200
C1113       C  0.34869570  0.98809772  0.23479083    -0.03300
C1114       C  0.33219611  0.99944449  0.26605700     0.02200
C1115       C  0.36541482  0.06144491  0.28900525     0.09000
N1116       N  0.40096048  0.03556700  0.23118861     0.65400
H1117       H  0.38431489  0.99214612  0.20044624     0.18300
N1118       N  0.30861682  0.98808303  0.27803143     0.75900
H1119       H  0.32548107  0.03208042  0.30728467     0.09800
C1120       C  0.36490995  0.08260641  0.26075656     0.03500
C1121       C  0.37068152  0.10654188  0.27779248    -0.05200
C1122       C  0.37659784  0.10990868  0.32288832    -0.23600
C1123       C  0.37685766  0.08863918  0.35114641     0.12800
C1124       C  0.37135887  0.06467540  0.33396471    -0.12700
N1125       N  0.35790373  0.08018986  0.21501586     0.64400
H1126       H  0.37041774  0.12253849  0.25569202     0.12300
N1127       N  0.38187617  0.09108934  0.39761417     0.61100
H1128       H  0.37170052  0.04852867  0.35577314     0.08400
O1129       O  0.29251984  0.98306188  0.24837396    -0.40400
O1130       O  0.30194997  0.98769498  0.31825508    -0.39600
O1131       O  0.41734297  0.03868962  0.26116795    -0.39600
O1132       O  0.40694676  0.03900384  0.19110977    -0.37300
O1133       O  0.36443093  0.09782008  0.42358995    -0.38200
O1134       O  0.40236554  0.08291004  0.41336627    -0.34300
O1135       O  0.33582661  0.07327117  0.20495330    -0.35700
O1136       O  0.37222866  0.08872966  0.18517013    -0.40000
C1137       C  0.39600393  0.84190840  0.89268232    -0.13700
C1138       C  0.37058412  0.84453747  0.90446538     0.16700
C1139       C  0.35174290  0.84051055  0.87230115     0.03000
C1140       C  0.35867594  0.83523332  0.82837180    -0.12200
C1141       C  0.38425812  0.83429296  0.81564503    -0.03300
C1142       C  0.40301803  0.83679505  0.84884690     0.02200
C1143       C  0.36467865  0.85451344  0.94904902     0.09000
N1144       N  0.32563113  0.84366452  0.88289027     0.65400
H1145       H  0.34391024  0.83319395  0.80379003     0.18300
N1146       N  0.42930373  0.83570019  0.83845620     0.75900
H1147       H  0.41055532  0.84491696  0.91740063     0.09800
C1148       C  0.35321097  0.83977588  0.98216558     0.03500
C1149       C  0.34999947  0.84984664  0.02491106    -0.05200
C1150       C  0.35840727  0.87435203  0.03539912    -0.23600
C1151       C  0.36878249  0.88939674  0.00124791     0.12800
C1152       C  0.37183025  0.87934199  0.95870423    -0.12700
N1153       N  0.34589291  0.81424991  0.97358259     0.64400
H1154       H  0.34180864  0.83805767  0.05034499     0.12300
N1155       N  0.37618295  0.91498396  0.00886012     0.61100
H1156       H  0.38019673  0.89091187  0.93305248     0.08400
O1157       O  0.44096569  0.81504940  0.84192398    -0.40400
O1158       O  0.44159786  0.85589589  0.83366023    -0.39600
O1159       O  0.31649583  0.86559719  0.88565742    -0.39600
O1160       O  0.31096652  0.82492930  0.88104074    -0.37300
O1161       O  0.39899335  0.91996088  0.01720328    -0.38200
O1162       O  0.36145246  0.93259159  0.99788826    -0.34300
O1163       O  0.36261638  0.79763571  0.96760833    -0.35700
O1164       O  0.32326858  0.80759891  0.97943803    -0.40000
C1165       C  0.33840714  0.86418290  0.48303264    -0.13700
C1166       C  0.35420829  0.87490341  0.45087297     0.16700
C1167       C  0.37783752  0.88477755  0.46367915     0.03000
C1168       C  0.38596431  0.88215480  0.50755845    -0.12200
C1169       C  0.37070557  0.87055447  0.53965853    -0.03300
C1170       C  0.34637589  0.86211959  0.52735861     0.02200
C1171       C  0.34650471  0.87500331  0.40364317     0.09000
N1172       N  0.39348188  0.89804005  0.43269858     0.65400
H1173       H  0.40427531  0.88963550  0.51679676     0.18300
N1174       N  0.33003009  0.85041339  0.55883562     0.75900
H1175       H  0.32011187  0.85680658  0.47343647     0.09800
C1176       C  0.36057729  0.86169156  0.37155025     0.03500
C1177       C  0.35587722  0.86566211  0.32642731    -0.05200
C1178       C  0.33668955  0.88214168  0.31230657    -0.23600
C1179       C  0.32141064  0.89402666  0.34477966     0.12800
C1180       C  0.32665719  0.89060533  0.39002578    -0.12700
N1181       N  0.37963517  0.84400350  0.38440101     0.64400
H1182       H  0.36735928  0.85575039  0.30237966     0.12300
N1183       N  0.30119952  0.91044423  0.33261888     0.61100
H1184       H  0.31571867  0.90076294  0.41454946     0.08400
O1185       O  0.33081582  0.82682388  0.56389690    -0.40400
O1186       O  0.31189591  0.86278108  0.57511563    -0.39600
O1187       O  0.38460050  0.91645626  0.41131323    -0.39600
O1188       O  0.41685968  0.89355536  0.43092801    -0.37300
O1189       O  0.27998548  0.90122077  0.32254000    -0.38200
O1190       O  0.30311297  0.93381390  0.33989582    -0.34300
O1191       O  0.37348501  0.82444062  0.40556350    -0.35700
O1192       O  0.40171014  0.84590979  0.36904575    -0.40000
C1193       C  0.51811548  0.87367464  0.22249591    -0.13700
C1194       C  0.49705756  0.87680668  0.25047374     0.16700
C1195       C  0.49951076  0.87084673  0.29598440     0.03000
C1196       C  0.52299152  0.86301265  0.31261751    -0.12200
C1197       C  0.54402904  0.85969950  0.28461873    -0.03300
C1198       C  0.54136934  0.86506650  0.23905401     0.02200
C1199       C  0.47247774  0.88494234  0.23085323     0.09000
N1200       N  0.47812203  0.87112481  0.32521395     0.65400
H1201       H  0.52448541  0.85842191  0.34744729     0.18300
N1202       N  0.56220560  0.86252636  0.20930571     0.75900
H1203       H  0.51650279  0.87801257  0.18758327     0.09800
C1204       C  0.45847819  0.90579738  0.24722922     0.03500
C1205       C  0.43448731  0.91113892  0.22931143    -0.05200
C1206       C  0.42433799  0.89641849  0.19476149    -0.23600
C1207       C  0.43886369  0.87631530  0.17745549     0.12800
C1208       C  0.46247406  0.87069384  0.19570968    -0.12700
N1209       N  0.46844176  0.92187888  0.28140132     0.64400
H1210       H  0.42362325  0.92671242  0.24273927     0.12300
N1211       N  0.43011879  0.86170357  0.14053761     0.61100
H1212       H  0.47301244  0.85481834  0.18251680     0.08400
O1213       O  0.57839884  0.87992062  0.20679626    -0.40400
O1214       O  0.56222664  0.84501379  0.18082095    -0.39600
O1215       O  0.45828997  0.85932176  0.31467460    -0.39600
O1216       O  0.48024183  0.87996304  0.36403151    -0.37300
O1217       O  0.43242969  0.87022154  0.10168011    -0.38200
O1218       O  0.42355800  0.83905484  0.14612685    -0.34300
O1219       O  0.49007936  0.93152961  0.27710764    -0.35700
O1220       O  0.45457780  0.92879676  0.31328395    -0.40000
C1221       C  0.01953677  0.75120608  0.92389561    -0.13700
C1222       C  0.01519857  0.74609034  0.96899027     0.16700
C1223       C  0.99063651  0.73967440  0.98307251     0.03000
C1224       C  0.97155759  0.73600616  0.95159894    -0.12200
C1225       C  0.97663274  0.73865863  0.90625929    -0.03300
C1226       C  0.00043036  0.74734823  0.89241660     0.02200
C1227       C  0.03694765  0.74275103  0.99932318     0.09000
N1228       N  0.98556244  0.73377594  0.02846887     0.65400
H1229       H  0.95341726  0.72890043  0.96227462     0.18300
N1230       N  0.00621734  0.74962618  0.84626237     0.75900
H1231       H  0.03827630  0.75616927  0.91279189     0.09800
C1232       C  0.05452683  0.72330199  0.99127152     0.03500
C1233       C  0.07205044  0.71693427  0.02397505    -0.05200
C1234       C  0.07242364  0.72958078  0.06493616    -0.23600
C1235       C  0.05637069  0.75042103  0.07164656     0.12800
C1236       C  0.03861894  0.75681363  0.03887574    -0.12700
N1237       N  0.05328501  0.70823359  0.95181066     0.64400
H1238       H  0.08435122  0.70104638  0.01845582     0.12300
N1239       N  0.05621605  0.76370676  0.11296223     0.61100
H1240       H  0.02533494  0.77182145  0.04521210     0.08400
O1241       O  0.01564031  0.73116787  0.82552670    -0.40400
O1242       O  0.00489696  0.77089218  0.82774198    -0.39600
O1243       O  0.97325113  0.74912375  0.05213560    -0.39600
O1244       O  0.98966951  0.71177236  0.04258923    -0.37300
O1245       O  0.06702892  0.78485170  0.11592394    -0.38200
O1246       O  0.04149482  0.75672624  0.14341811    -0.34300
O1247       O  0.07070374  0.70959885  0.92336941    -0.35700
O1248       O  0.03674465  0.69120509  0.94830401    -0.40000
C1249       C  0.96100900  0.66290683  0.25980564    -0.13700
C1250       C  0.98031571  0.64990911  0.28188407     0.16700
C1251       C  0.97408215  0.63270631  0.31581080     0.03000
C1252       C  0.94861713  0.62884087  0.32679168    -0.12200
C1253       C  0.92948471  0.64270523  0.30573560    -0.03300
C1254       C  0.93582442  0.65964982  0.27172067     0.02200
C1255       C  0.00659154  0.65526096  0.26830677     0.09000
N1256       N  0.99328717  0.62021455  0.34095050     0.65400
H1257       H  0.94385220  0.61595921  0.35324812     0.18300
N1258       N  0.91679422  0.67278359  0.24743970     0.75900
H1259       H  0.96555731  0.67577005  0.23316229     0.09800
C1260       C  0.02231167  0.63680057  0.24891359     0.03500
C1261       C  0.04531327  0.64408677  0.22969554    -0.05200
C1262       C  0.05248194  0.66966274  0.22791039    -0.23600
C1263       C  0.03718088  0.68777448  0.24969719     0.12800
C1264       C  0.01472638  0.68035880  0.26994040    -0.12700
N1265       N  0.01436827  0.61105038  0.24516778     0.64400
H1266       H  0.05670678  0.62987524  0.21355717     0.12300
N1267       N  0.04306669  0.71407442  0.24917200     0.61100
H1268       H  0.00282581  0.69458212  0.28496077     0.08400
O1269       O  0.91119021  0.69511268  0.25823013    -0.40400
O1270       O  0.90985035  0.66428148  0.21019915    -0.39600
O1271       O  0.00897482  0.63307212  0.36304081    -0.39600
O1272       O  0.99223653  0.59665466  0.34656229    -0.37300
O1273       O  0.03212236  0.72813289  0.22149049    -0.38200
O1274       O  0.05398985  0.72391462  0.28218789    -0.34300
O1275       O  0.99460619  0.60562926  0.22371795    -0.35700
O1276       O  0.02888688  0.59356730  0.25759269    -0.40000
C1277       C  0.25685297  0.81200350  0.14000583    -0.13700
C1278       C  0.23210135  0.82084295  0.13516303     0.16700
C1279       C  0.22747660  0.84700073  0.13765604     0.03000
C1280       C  0.24740065  0.86371852  0.14689167    -0.12200
C1281       C  0.27211330  0.85479287  0.15346110    -0.03300
C1282       C  0.27677426  0.82856656  0.14884603     0.02200
C1283       C  0.21126489  0.80209973  0.13463268     0.09000
N1284       N  0.20262645  0.85678037  0.13082029     0.65400
H1285       H  0.24342935  0.88368961  0.14947550     0.18300
N1286       N  0.30155444  0.81823555  0.15368483     0.75900
H1287       H  0.26062438  0.79194740  0.13877671     0.09800
C1288       C  0.21071971  0.78214212  0.10357380     0.03500
C1289       C  0.19426278  0.76176555  0.10991217    -0.05200
C1290       C  0.17800855  0.76090023  0.14676697    -0.23600
C1291       C  0.17796479  0.78142284  0.17699771     0.12800
C1292       C  0.19438916  0.80177970  0.17048578    -0.12700
N1293       N  0.22693139  0.78227153  0.06561451     0.64400
H1294       H  0.19433379  0.74649439  0.08598614     0.12300
N1295       N  0.16299135  0.78100330  0.21649452     0.61100
H1296       H  0.19515410  0.81659072  0.19525906     0.08400
O1297       O  0.31466263  0.81374109  0.11959910    -0.40400
O1298       O  0.30839647  0.80951518  0.19072974    -0.39600
O1299       O  0.19232720  0.87026417  0.16029230    -0.39600
O1300       O  0.19186459  0.85380157  0.09376180    -0.37300
O1301       O  0.16990286  0.76777764  0.24908373    -0.38200
O1302       O  0.14514227  0.79653561  0.22121756    -0.34300
O1303       O  0.24211746  0.76429304  0.05913739    -0.35700
O1304       O  0.22393962  0.79873337  0.03591176    -0.40000
C1305       C  0.19724138  0.67772405  0.86362090    -0.13700
C1306       C  0.19274481  0.65745065  0.89238833     0.16700
C1307       C  0.19562768  0.63262864  0.87645193     0.03000
C1308       C  0.20164085  0.62834251  0.83191376    -0.12200
C1309       C  0.20507286  0.64848753  0.80224692    -0.03300
C1310       C  0.20354191  0.67345726  0.81887992     0.02200
C1311       C  0.18197571  0.66209149  0.93711200     0.09000
N1312       N  0.19191762  0.61147893  0.90503681     0.65400
H1313       H  0.20289892  0.60907726  0.82042201     0.18300
N1314       N  0.20805787  0.69468803  0.79089317     0.75900
H1315       H  0.19501604  0.69681851  0.87546400     0.09800
C1316       C  0.19559449  0.67437882  0.97105357     0.03500
C1317       C  0.18494979  0.67687830  0.01354772    -0.05200
C1318       C  0.16051047  0.66782530  0.02250582    -0.23600
C1319       C  0.14664074  0.65629207  0.98788313     0.12800
C1320       C  0.15745439  0.65348485  0.94580425    -0.12700
N1321       N  0.22029965  0.68414299  0.96302464     0.64400
H1322       H  0.19567558  0.68615986  0.03938376     0.12300
N1323       N  0.12193939  0.64633114  0.99526911     0.61100
H1324       H  0.14674840  0.64428391  0.91985505     0.08400
O1325       O  0.18971387  0.70750333  0.77664819    -0.40400
O1326       O  0.23026761  0.70281889  0.78604340    -0.39600
O1327       O  0.17310032  0.59722966  0.89932937    -0.39600
O1328       O  0.20936502  0.60481055  0.93100618    -0.37300
O1329       O  0.11950653  0.62424932  0.01016435    -0.38200
O1330       O  0.10300209  0.65751729  0.97926981    -0.34300
O1331       O  0.22305205  0.70724083  0.95427428    -0.35700
O1332       O  0.23938726  0.67094118  0.97228661    -0.40000
C1333       C  0.14135818  0.69396654  0.38016493    -0.13700
C1334       C  0.16506789  0.68381614  0.39007213     0.16700
C1335       C  0.18300460  0.68098450  0.35609187     0.03000
C1336       C  0.17684502  0.68784379  0.31251434    -0.12200
C1337       C  0.15265512  0.69708431  0.30182313    -0.03300
C1338       C  0.13500752  0.70064839  0.33661107     0.02200
C1339       C  0.16968834  0.67410318  0.43524670     0.09000
N1340       N  0.20696787  0.66968556  0.36484283     0.65400
H1341       H  0.19066350  0.68469253  0.28674750     0.18300
N1342       N  0.11028470  0.71030795  0.32836864     0.75900
H1343       H  0.12749961  0.69610829  0.40620663     0.09800
C1344       C  0.18175990  0.68873386  0.46802802     0.03500
C1345       C  0.18421014  0.67934963  0.51131306    -0.05200
C1346       C  0.17470999  0.65543431  0.52241507    -0.23600
C1347       C  0.16219635  0.64092810  0.48947324     0.12800
C1348       C  0.16014316  0.65031535  0.44617799    -0.12700
N1349       N  0.19135499  0.71322383  0.45788663     0.64400
H1350       H  0.19385559  0.69059958  0.53608744     0.12300
N1351       N  0.15021693  0.61738541  0.49991290     0.61100
H1352       H  0.15027956  0.63939407  0.42120595     0.08400
O1353       O  0.10700064  0.73380988  0.32519675    -0.40400
O1354       O  0.09142430  0.69592331  0.33199472    -0.39600
O1355       O  0.20918080  0.64599676  0.36334819    -0.39600
O1356       O  0.22649303  0.68328095  0.36649775    -0.37300
O1357       O  0.13533142  0.61604059  0.53253985    -0.38200
O1358       O  0.15131854  0.59917808  0.47283213    -0.34300
O1359       O  0.17822304  0.73248874  0.46642807    -0.35700
O1360       O  0.21420457  0.71579685  0.44704748    -0.40000
C1361       C  0.16918734  0.57477819  0.23147573    -0.13700
C1362       C  0.15414997  0.55561700  0.21300855     0.16700
C1363       C  0.13541750  0.56208138  0.18192444     0.03000
C1364       C  0.13229723  0.58732103  0.16924201    -0.12200
C1365       C  0.14745888  0.60665140  0.18741094    -0.03300
C1366       C  0.16593283  0.60006741  0.21929938     0.02200
C1367       C  0.15744512  0.52932507  0.22898827     0.09000
N1368       N  0.11966178  0.54316069  0.16240820     0.65400
H1369       H  0.11792009  0.59170984  0.14505709     0.18300
N1370       N  0.18127753  0.61876429  0.24041875     0.75900
H1371       H  0.18315437  0.57014955  0.25626250     0.09800
C1372       C  0.18097611  0.51713335  0.22600178     0.03500
C1373       C  0.18484289  0.49412852  0.24763140    -0.05200
C1374       C  0.16547911  0.48259337  0.27230725    -0.23600
C1375       C  0.14143238  0.49424614  0.27325621     0.12800
C1376       C  0.13767729  0.51741418  0.25174542    -0.12700
N1377       N  0.20116095  0.52794293  0.20099450     0.64400
H1378       H  0.20323385  0.48540093  0.24531324     0.12300
N1379       N  0.12093839  0.48362162  0.29767619     0.61100
H1380       H  0.11960542  0.52670981  0.25468782     0.08400
O1381       O  0.20370596  0.62207362  0.22764896    -0.40400
O1382       O  0.17383824  0.62896114  0.27600812    -0.39600
O1383       O  0.09663903  0.54196213  0.17289368    -0.39600
O1384       O  0.12778390  0.53016047  0.13027562    -0.37300
O1385       O  0.11977691  0.48690616  0.33915768    -0.38200
O1386       O  0.10189034  0.47532309  0.27711466    -0.34300
O1387       O  0.22063648  0.53593503  0.22067164    -0.35700
O1388       O  0.20106280  0.52619397  0.15919104    -0.40000
C1389       C  0.39137894  0.01977659  0.76977276    -0.13700
C1390       C  0.37096700  0.00496160  0.75519479     0.16700
C1391       C  0.34643922  0.01484915  0.75769003     0.03000
C1392       C  0.34243067  0.03879471  0.77602027    -0.12200
C1393       C  0.36260777  0.05359303  0.79213086    -0.03300
C1394       C  0.38743285  0.04392744  0.78819397     0.02200
C1395       C  0.37525813  0.97879939  0.73905164     0.09000
N1396       N  0.32535110  0.00079907  0.74129258     0.65400
H1397       H  0.32328405  0.04568001  0.77777932     0.18300
N1398       N  0.40875749  0.05792989  0.80375939     0.75900
H1399       H  0.41030695  0.01232941  0.76783536     0.09800
C1400       C  0.38530822  0.97414484  0.69667237     0.03500
C1401       C  0.38942599  0.94928695  0.68235263    -0.05200
C1402       C  0.38351517  0.92855332  0.70963132    -0.23600
C1403       C  0.37335141  0.93332517  0.75232305     0.12800
C1404       C  0.36913786  0.95830331  0.76643883    -0.12700
N1405       N  0.39074206  0.99453275  0.66729370     0.64400
H1406       H  0.39694940  0.94625655  0.64945558     0.12300
N1407       N  0.36827163  0.91319248  0.78252625     0.61100
H1408       H  0.36155242  0.96174480  0.79917034     0.08400
O1409       O  0.42310339  0.06867928  0.77626787    -0.45200
O1410       O  0.41542477  0.05625363  0.84388163    -0.39600
O1411       O  0.30883757  0.99280494  0.76792347    -0.39600
O1412       O  0.32141419  0.99948334  0.70001345    -0.37300
O1413       O  0.38626879  0.90270981  0.80281790    -0.38200
O1414       O  0.34582449  0.90828925  0.79349380    -0.34300
O1415       O  0.41332051  0.00094288  0.66031860    -0.35700
O1416       O  0.37322222  0.00431827  0.64477441    -0.40000
C1417       C  0.28139405  0.00744082  0.06124383    -0.13700
C1418       C  0.29023269  0.00632981  0.01743735     0.16700
C1419       C  0.30126980  0.98382190  0.00155925     0.03000
C1420       C  0.30495550  0.96362773  0.03076659    -0.12200
C1421       C  0.29916981  0.96600219  0.07618533    -0.03300
C1422       C  0.28593996  0.98764256  0.09079944     0.02200
C1423       C  0.29308831  0.03024441  0.99290396     0.09000
N1424       N  0.31180128  0.98223877  0.95780719     0.65400
H1425       H  0.31465808  0.94712664  0.01889212     0.18300
N1426       N  0.28009723  0.99148145  0.13660608     0.75900
H1427       H  0.27311916  0.02467042  0.07363632     0.09800
C1428       C  0.28177243  0.03455537  0.95121220     0.03500
C1429       C  0.28868974  0.05589674  0.92663270    -0.05200
C1430       C  0.30682842  0.07281189  0.94307302    -0.23600
C1431       C  0.31727331  0.06895895  0.98543790     0.12800
C1432       C  0.31024965  0.04790094  0.01005601    -0.12700
N1433       N  0.26389802  0.01714193  0.93301005     0.64400
H1434       H  0.28090877  0.05853598  0.89372105     0.12300
N1435       N  0.33561736  0.08594801  0.00329839     0.61100
H1436       H  0.31918060  0.04466816  0.04190980     0.08400
O1437       O  0.25820782  0.98651227  0.15053216    -0.40400
O1438       O  0.29472329  0.00466332  0.16028751    -0.39600
O1439       O  0.32989113  0.99648783  0.94716043    -0.39600
O1440       O  0.30623379  0.96383080  0.93296537    -0.37300
O1441       O  0.32835663  0.10535537  0.02401881    -0.38200
O1442       O  0.35847410  0.07934915  0.00536166    -0.34300
O1443       O  0.24251279  0.01482537  0.95094493    -0.35700
O1444       O  0.26786635  0.00720817  0.89549866    -0.40000
C1445       C  0.35778859  0.18732152  0.15167936    -0.13700
C1446       C  0.37758588  0.19249545  0.12223409     0.16700
C1447       C  0.39969232  0.20396763  0.13850755     0.03000
C1448       C  0.40219818  0.20899481  0.18408426    -0.12200
C1449       C  0.38286688  0.20270487  0.21419360    -0.03300
C1450       C  0.36018445  0.19229043  0.19721687     0.02200
C1451       C  0.37537131  0.18403821  0.07536450     0.09000
N1452       N  0.42035159  0.20927265  0.10954789     0.65400
H1453       H  0.41965532  0.21699283  0.19599862     0.18300
N1454       N  0.33981286  0.18539227  0.22579320     0.75900
H1455       H  0.34069231  0.17874785  0.13942676     0.09800
C1456       C  0.37432007  0.15818966  0.06521097     0.03500
C1457       C  0.37138159  0.15022604  0.02125089    -0.05200
C1458       C  0.36880062  0.16765550  0.98627710    -0.23600
C1459       C  0.37043324  0.19370652  0.99642413     0.12800
C1460       C  0.37374528  0.20169131  0.04076872    -0.12700
N1461       N  0.37638628  0.13960369  0.09931134     0.64400
H1462       H  0.37106965  0.13047833  0.01485050     0.12300
N1463       N  0.36871789  0.21236655  0.96246498     0.61100
H1464       H  0.37465961  0.22145063  0.04819909     0.08400
O1465       O  0.33700464  0.16263574  0.23689338    -0.40400
O1466       O  0.32239379  0.20103213  0.23349989    -0.39600
O1467       O  0.42525437  0.23179071  0.09923181    -0.39600
O1468       O  0.43571528  0.19198684  0.09950307    -0.37300
O1469       O  0.34833157  0.22425682  0.95704412    -0.38200
O1470       O  0.38858061  0.22017620  0.94395509    -0.34300
O1471       O  0.35666203  0.12972525  0.11500893    -0.35700
O1472       O  0.39759490  0.12989895  0.10769243    -0.40000
C1473       C  0.32296204  0.18049387  0.64546116    -0.13700
C1474       C  0.33266217  0.16156473  0.61762002     0.16700
C1475       C  0.33862170  0.13776314  0.63532202     0.03000
C1476       C  0.33561218  0.13351300  0.68068642    -0.12200
C1477       C  0.32739235  0.15284981  0.70925674    -0.03300
C1478       C  0.32007652  0.17623837  0.69109880     0.02200
C1479       C  0.34026667  0.16783957  0.57197525     0.09000
N1480       N  0.35001187  0.11852099  0.60850274     0.65400
H1481       H  0.34138843  0.11549809  0.69396182     0.18300
N1482       N  0.30941550  0.19563829  0.71831677     0.75900
H1483       H  0.31825668  0.19874114  0.63188787     0.09800
C1484       C  0.32944332  0.15592762  0.53468085     0.03500
C1485       C  0.34098195  0.15841202  0.49311300    -0.05200
C1486       C  0.36304249  0.17285839  0.48817622    -0.23600
C1487       C  0.37290218  0.18607231  0.52525227     0.12800
C1488       C  0.36153502  0.18315507  0.56677585    -0.12700
N1489       N  0.30697164  0.14112905  0.53867975     0.64400
H1490       H  0.33299811  0.14859680  0.46487879     0.12300
N1491       N  0.39415673  0.20271462  0.52139036     0.61100
H1492       H  0.36970076  0.19238983  0.59547653     0.08400
O1493       O  0.28642279  0.19449873  0.72904354    -0.40400
O1494       O  0.32168466  0.21563123  0.72561379    -0.39600
O1495       O  0.37189330  0.12182832  0.59302122    -0.39600
O1496       O  0.34010740  0.09689719  0.60641309    -0.37300
O1497       O  0.39421205  0.21968749  0.49211132    -0.38200
O1498       O  0.41080032  0.20317293  0.55140498    -0.34300
O1499       O  0.28639096  0.15177759  0.54840408    -0.35700
O1500       O  0.30682418  0.11848218  0.52559219    -0.40000
C1501       C  0.45706825  0.17848265  0.77388990    -0.13700
C1502       C  0.47626647  0.16258225  0.78961171     0.16700
C1503       C  0.47000904  0.14299149  0.81902871     0.03000
C1504       C  0.44479909  0.13943332  0.83173495    -0.12200
C1505       C  0.42537398  0.15547917  0.81666336    -0.03300
C1506       C  0.43183253  0.17520646  0.78721943     0.02200
C1507       C  0.50259295  0.16625892  0.77384092     0.09000
N1508       N  0.48915432  0.12708623  0.83750819     0.65400
H1509       H  0.44056421  0.12424095  0.85434705     0.18300
N1510       N  0.41323173  0.19244596  0.77124590     0.75900
H1511       H  0.46171951  0.19354583  0.75123556     0.09800
C1512       C  0.51369021  0.14949077  0.74315433     0.03500
C1513       C  0.53793858  0.15436002  0.72663617    -0.05200
C1514       C  0.55165544  0.17577286  0.74030961    -0.23600
C1515       C  0.54104392  0.19174738  0.77303878     0.12800
C1516       C  0.51663475  0.18697121  0.78924150    -0.12700
N1517       N  0.50013924  0.12800916  0.72698549     0.64400
H1518       H  0.54577208  0.14167586  0.70209136     0.12300
N1519       N  0.55418734  0.21360957  0.78854133     0.61100
H1520       H  0.50841556  0.19973367  0.81326149     0.08400
O1521       O  0.40526687  0.19046625  0.73188267    -0.40400
O1522       O  0.40823109  0.21204593  0.79346247    -0.39600
O1523       O  0.50682993  0.13668950  0.86006044    -0.39600
O1524       O  0.48648115  0.10342786  0.83679308    -0.37300
O1525       O  0.55381362  0.23359588  0.76592577    -0.38200
O1526       O  0.56337051  0.21393503  0.82721523    -0.34300
O1527       O  0.48345030  0.13082112  0.69749999    -0.35700
O1528       O  0.50768903  0.10610652  0.73648719    -0.40000
C1529       C  0.94627100  0.38293684  0.76048004    -0.13700
C1530       C  0.96518239  0.37725181  0.72934252     0.16700
C1531       C  0.95912752  0.37662005  0.68383471     0.03000
C1532       C  0.93468308  0.38268828  0.66988352    -0.12200
C1533       C  0.91583891  0.38863623  0.70089813    -0.03300
C1534       C  0.92162139  0.38849556  0.74656302     0.02200
C1535       C  0.99104985  0.37151464  0.74483935     0.09000
N1536       N  0.97764673  0.36980939  0.65148163     0.65400
H1537       H  0.93030911  0.38243269  0.63478570     0.18300
N1538       N  0.90280980  0.39452669  0.77896092     0.75900
H1539       H  0.95071012  0.38314484  0.79553177     0.09800
C1540       C  0.00674172  0.39045662  0.76250062     0.03500
C1541       C  0.03089506  0.38432302  0.77803789    -0.05200
C1542       C  0.03976333  0.35927993  0.77690522    -0.23600
C1543       C  0.02393098  0.34036343  0.75848817     0.12800
C1544       C  0.99991330  0.34667425  0.74249529    -0.12700
N1545       N  0.99836014  0.41604265  0.76487974     0.64400
H1546       H  0.04243745  0.39917049  0.79195063     0.12300
N1547       N  0.03157290  0.31453352  0.75655769     0.61100
H1548       H  0.98792715  0.33203678  0.72904130     0.08400
O1549       O  0.89414241  0.37742621  0.80364470    -0.40400
O1550       O  0.89309907  0.41626007  0.78001775    -0.39600
O1551       O  0.97811390  0.34762984  0.63613247    -0.39600
O1552       O  0.99117582  0.38664390  0.63399863    -0.37300
O1553       O  0.02497117  0.29965073  0.78702832    -0.38200
O1554       O  0.04062917  0.30572738  0.72100287    -0.34300
O1555       O  0.98957806  0.42459912  0.80084178    -0.35700
O1556       O  0.00340633  0.43099059  0.73361596    -0.40000
C1557       C  0.03455329  0.30849320  0.99647731    -0.13700
C1558       C  0.01637411  0.29181555  0.97944345     0.16700
C1559       C  0.02005331  0.28111048  0.93697272     0.03000
C1560       C  0.04149637  0.28767980  0.91201340    -0.12200
C1561       C  0.05893801  0.30540291  0.92837644    -0.03300
C1562       C  0.05543299  0.31561340  0.97116474     0.02200
C1563       C  0.99206646  0.29005181  0.00370496     0.09000
N1564       N  0.00158774  0.26463422  0.91795315     0.65400
H1565       H  0.04359554  0.28028589  0.87872927     0.18300
N1566       N  0.07184823  0.33479757  0.98796291     0.75900
H1567       H  0.03157068  0.31748764  0.02831650     0.09800
C1568       C  0.99146765  0.28229777  0.04835569     0.03500
C1569       C  0.97112526  0.28913978  0.07554435    -0.05200
C1570       C  0.95113263  0.30380039  0.05896590    -0.23600
C1571       C  0.95041433  0.30900949  0.01283886     0.12800
C1572       C  0.97092211  0.30227358  0.98582129    -0.12700
N1573       N  0.01238963  0.26918555  0.06736902     0.64400
H1574       H  0.97200641  0.28454446  0.11041019     0.12300
N1575       N  0.92989294  0.32261478  0.99339298     0.61100
H1576       H  0.97116354  0.30835401  0.95164388     0.08400
O1577       O  0.06514093  0.35760050  0.98587228    -0.40400
O1578       O  0.09040309  0.32876616  0.01195605    -0.39600
O1579       O  0.98920566  0.27151427  0.88428878    -0.39600
O1580       O  0.99993545  0.24214955  0.93122745    -0.37300
O1581       O  0.90883008  0.31190568  0.98800104    -0.38200
O1582       O  0.93376251  0.34392315  0.97613164    -0.34300
O1583       O  0.02555166  0.27963154  0.09715704    -0.35700
O1584       O  0.01577159  0.24616831  0.05837099    -0.40000
C1585       C  0.21629468  0.25975201  0.86977627    -0.13700
C1586       C  0.20839803  0.23473391  0.86399067     0.16700
C1587       C  0.18259493  0.22988300  0.85527629     0.03000
C1588       C  0.16563848  0.25017600  0.85026140    -0.12200
C1589       C  0.17367965  0.27532054  0.85552617    -0.03300
C1590       C  0.19936971  0.27987612  0.86585718     0.02200
C1591       C  0.22806012  0.21455708  0.86445356     0.09000
N1592       N  0.17318008  0.20456552  0.85293899     0.65400
H1593       H  0.14605744  0.24625042  0.84317419     0.18300
N1594       N  0.20906853  0.30492187  0.87013584     0.75900
H1595       H  0.23596272  0.26378486  0.87604636     0.09800
C1596       C  0.23251133  0.19891537  0.82714132     0.03500
C1597       C  0.25284011  0.18190470  0.82754168    -0.05200
C1598       C  0.26970446  0.18081942  0.86360870    -0.23600
C1599       C  0.26478779  0.19588422  0.90131775     0.12800
C1600       C  0.24414560  0.21251744  0.90143927    -0.12700
N1601       N  0.21803360  0.20155980  0.78719551     0.64400
H1602       H  0.25648755  0.17074022  0.79806296     0.12300
N1603       N  0.28030166  0.19420358  0.94002461     0.61100
H1604       H  0.24083677  0.22421334  0.93042153     0.08400
O1605       O  0.21785843  0.31594518  0.83645383    -0.40400
O1606       O  0.21320961  0.31394485  0.90828287    -0.39600
O1607       O  0.17706623  0.18961590  0.88474671    -0.39600
O1608       O  0.15809176  0.19824418  0.82239627    -0.37300
O1609       O  0.29301176  0.21307419  0.95248122    -0.38200
O1610       O  0.27812512  0.17546829  0.96546584    -0.34300
O1611       O  0.21729778  0.22256496  0.76762778    -0.35700
O1612       O  0.20942426  0.18222766  0.76782196    -0.40000
C1613       C  0.14920111  0.38787706  0.04532774    -0.13700
C1614       C  0.17141798  0.37526721  0.05743062     0.16700
C1615       C  0.18433945  0.36074441  0.02552935     0.03000
C1616       C  0.17484811  0.35890113  0.98210714    -0.12200
C1617       C  0.15248378  0.37137865  0.97005180    -0.03300
C1618       C  0.13978288  0.38628612  0.00191712     0.02200
C1619       C  0.18038909  0.37745109  0.10387538     0.09000
N1620       N  0.20716839  0.34789993  0.03671270     0.65400
H1621       H  0.18459853  0.34737266  0.95819728     0.18300
N1622       N  0.11788435  0.40068841  0.99030545     0.75900
H1623       H  0.13934569  0.39918106  0.06956142     0.09800
C1624       C  0.18833514  0.40083593  0.12094135     0.03500
C1625       C  0.19353893  0.40345440  0.16621716    -0.05200
C1626       C  0.19057514  0.38310595  0.19575810    -0.23600
C1627       C  0.18288333  0.35945969  0.17831345     0.12800
C1628       C  0.17816177  0.35678453  0.13258347    -0.12700
N1629       N  0.19057134  0.42234877  0.09273628     0.64400
H1630       H  0.19929619  0.42175975  0.17825332     0.12300
N1631       N  0.17829297  0.33837368  0.20660146     0.61100
H1632       H  0.17153884  0.33893062  0.11986278     0.08400
O1633       O  0.11927336  0.41698680  0.95994816    -0.40400
O1634       O  0.09848062  0.39991676  0.01454263    -0.39600
O1635       O  0.20743975  0.32413698  0.03889289    -0.39600
O1636       O  0.22762532  0.36002461  0.03908925    -0.37300
O1637       O  0.15678641  0.33558829  0.22389226    -0.38200
O1638       O  0.19393237  0.32044372  0.20775031    -0.34300
O1639       O  0.17494042  0.44021435  0.09607122    -0.35700
O1640       O  0.20985306  0.42490672  0.06860932    -0.40000
C1641       C  0.16762279  0.37687933  0.55597522    -0.13700
C1642       C  0.16078248  0.35153186  0.56112712     0.16700
C1643       C  0.15570078  0.33684555  0.52310053     0.03000
C1644       C  0.15693994  0.34777597  0.48080884    -0.12200
C1645       C  0.16336458  0.37335728  0.47541523    -0.03300
C1646       C  0.16907493  0.38784351  0.51383824     0.02200
C1647       C  0.15604838  0.34189015  0.60657230     0.09000
N1648       N  0.14955191  0.31069452  0.52695458     0.65400
H1649       H  0.15287401  0.33612181  0.45216847     0.18300
N1650       N  0.17630034  0.41376147  0.51103319     0.75900
H1651       H  0.17112434  0.38847267  0.58492852     0.09800
C1652       C  0.17471632  0.34291613  0.63984050     0.03500
C1653       C  0.16835873  0.33773746  0.68402666    -0.05200
C1654       C  0.14343774  0.33156634  0.69610369    -0.23600
C1655       C  0.12498276  0.32959302  0.66220918     0.12800
C1656       C  0.13144317  0.33471197  0.61805916    -0.12700
N1657       N  0.20017379  0.34951838  0.62931148     0.64400
H1658       H  0.18291709  0.33921290  0.70900170     0.12300
N1659       N  0.09928609  0.32364716  0.67203276     0.61100
H1660       H  0.11686423  0.33430008  0.59300031     0.08400
O1661       O  0.15971006  0.43070763  0.51486418    -0.40400
O1662       O  0.19932518  0.41962745  0.51398330    -0.39600
O1663       O  0.12792526  0.30296450  0.51578433    -0.39600
O1664       O  0.16666520  0.29495674  0.53590926    -0.37300
O1665       O  0.08364069  0.34122184  0.67856760    -0.38200
O1666       O  0.09145667  0.30135105  0.66683287    -0.34300
O1667       O  0.20926412  0.37007545  0.64328598    -0.35700
O1668       O  0.21462271  0.33318578  0.61241269    -0.40000
C1669       C  0.14601312  0.51805963  0.75152094    -0.13700
C1670       C  0.16425398  0.49932900  0.75846855     0.16700
C1671       C  0.18963509  0.50450025  0.74819688     0.03000
C1672       C  0.19637320  0.52793871  0.73030392    -0.12200
C1673       C  0.17807353  0.54659082  0.72195820    -0.03300
C1674       C  0.15263222  0.54149478  0.73338456     0.02200
C1675       C  0.15624380  0.47392723  0.77358710     0.09000
N1676       N  0.20879058  0.48604214  0.75577873     0.65400
H1677       H  0.21592017  0.53125377  0.72197619     0.18300
N1678       N  0.13316556  0.55971823  0.72634054     0.75900
H1679       H  0.12646536  0.51423728  0.75915031     0.09800
C1680       C  0.14597223  0.47011554  0.81613909     0.03500
C1681       C  0.13803828  0.44595658  0.82892377    -0.05200
C1682       C  0.14016158  0.42525982  0.79977573    -0.23600
C1683       C  0.14961063  0.42934881  0.75647263     0.12800
C1684       C  0.15781785  0.45347229  0.74400815    -0.12700
N1685       N  0.14442779  0.49043161  0.84733587     0.64400
H1686       H  0.13101583  0.44326164  0.86223820     0.12300
N1687       N  0.14992997  0.40949748  0.72413253     0.61100
H1688       H  0.16487810  0.45639729  0.71078105     0.08400
O1689       O  0.12734295  0.57487163  0.75708052    -0.40400
O1690       O  0.11943785  0.55824615  0.69215926    -0.39600
O1691       O  0.21789102  0.47381909  0.72351931    -0.39600
O1692       O  0.21870474  0.48415108  0.79373150    -0.37300
O1693       O  0.12944514  0.40172822  0.70757578    -0.38200
O1694       O  0.17061184  0.40212502  0.70789742    -0.34300
O1695       O  0.12321919  0.49970956  0.85717013    -0.35700
O1696       O  0.16370786  0.49673783  0.86936500    -0.40000
loop_ 
_geom_bond_atom_site_label_1 
_geom_bond_atom_site_label_2 
_geom_bond_distance 
_geom_bond_site_symmetry_2 
_ccdc_geom_bond_type 
O1          Cr19   2.014       .  S
O1            C9   1.268       .  A
O2          Cr19   1.968       .  S
O2            C3   1.257       .  A
C3            O4   1.270       .  A
C3         C1589   1.493       .  S
O4          Cr20   2.029       .  S
O5          Cr20   1.988       .  S
O5            C6   1.265       .  A
C6            O7   1.266       .  A
C6         C1561   1.475       .  S
O7          Cr21   1.999       .  S
O8          Cr21   1.967       .  S
O8            C9   1.259       .  A
C9         C1617   1.477       .  S
O10         Cr19   1.977       .  S
O10          C18   1.257       .  A
O11         Cr19   2.007       .  S
O11          C12   1.266       .  A
C12          O13   1.260       .  A
C12        C1654   1.490       .  S
O13         Cr20   1.976       .  S
O14         Cr20   2.010       .  S
O14          C15   1.266       .  A
C15          O16   1.262       .  A
C15        C1542   1.490       .  S
O16         Cr21   1.978       .  S
O17         Cr21   2.013       .  S
O17          C18   1.265       .  A
C18        C1682   1.487       .  S
Cr19         O22   1.772       .  S
Cr20         O22   1.778       .  S
Cr21         O22   1.772       .  S
O23         Cr41   2.000       .  S
O23          C31   1.263       .  A
O24         Cr41   2.026       .  S
O24          C25   1.272       .  A
C25          O26   1.258       .  A
C25        C1477   1.477       .  S
O26         Cr42   1.952       .  S
O27         Cr42   2.001       .  S
O27          C28   1.265       .  A
C28          O29   1.262       .  A
C28        C1393   1.495       .  S
O29         Cr43   1.994       .  S
O30         Cr43   1.994       .  S
O30          C31   1.263       .  A
C31        C1505   1.498       .  S
O32         Cr41   2.029       .  S
O32          C40   1.271       .  A
O33         Cr41   1.997       .  S
O33          C34   1.262       .  A
C34          O35   1.262       .  A
C34        C1598   1.490       .  S
O35         Cr42   2.004       .  S
O36         Cr42   1.976       .  S
O36          C37   1.261       .  A
C37          O38   1.265       .  A
C37        C1430   1.465       .  S
O38         Cr43   1.995       .  S
O39         Cr43   1.961       .  S
O39          C40   1.260       .  A
C40        C1458   1.496       .  S
Cr41         O44   1.779       .  S
Cr42         O44   1.774       .  S
Cr43         O44   1.770       .  S
O45         Cr63   2.013       .  S
O45          C53   1.268       .  A
O46         Cr63   1.977       .  S
O46          C47   1.259       .  A
C47          O48   1.264       .  A
C47        C1290   1.486       .  S
O48         Cr64   2.004       .  S
O49         Cr64   1.989       .  S
O49          C50   1.263       .  A
C50          O51   1.266       .  A
C50        C1234   1.473       .  S
O51         Cr65   1.996       .  S
O52         Cr65   1.973       .  S
O52          C53   1.261       .  A
C53        C1318   1.483       .  S
O54         Cr63   1.983       .  S
O54          C62   1.259       .  A
O55         Cr63   2.011       .  S
O55          C56   1.268       .  A
C56          O57   1.261       .  A
C56        C1337   1.490       .  S
O57         Cr64   1.976       .  S
O58         Cr64   2.001       .  S
O58          C59   1.264       .  A
C59          O60   1.261       .  A
C59        C1262   1.488       .  S
O60         Cr65   1.982       .  S
O61         Cr65   2.000       .  S
O61          C62   1.263       .  A
C62        C1365   1.492       .  S
Cr63         O66   1.769       .  S
Cr64         O66   1.775       .  S
Cr65         O66   1.768       .  S
O67         Cr85   2.003       .  S
O67          C75   1.262       .  A
O68         Cr85   1.964       .  S
O68          C69   1.263       .  A
C69          O70   1.272       .  A
C69        C1178   1.487       .  S
O70         Cr86   2.021       .  S
O71         Cr86   1.990       .  S
O71          C72   1.263       .  A
C72          O73   1.264       .  A
C72        C1113   1.485       .  S
O73         Cr87   1.991       .  S
O74         Cr87   1.999       .  S
O74          C75   1.262       .  A
C75        C1206   1.487       .  S
O76         Cr85   1.976       .  S
O76          C84   1.262       .  A
O77         Cr85   1.988       .  S
O77          C78   1.258       .  A
C78          O79   1.261       .  A
C78        C1281   1.488       .  S
O79         Cr86   1.997       .  S
O80         Cr86   2.013       .  S
O80          C81   1.267       .  A
C81          O82   1.261       .  A
C81        C1421   1.485       .  S
O82         Cr87   1.973       .  S
O83         Cr87   2.005       .  S
O83          C84   1.267       .  A
C84        C1150   1.483       .  S
Cr85         O88   1.768       .  S
Cr86         O88   1.774       .  S
Cr87         O88   1.763       .  S
O89        Cr107   1.982       .  S
O89          C97   1.261       .  A
O90        Cr107   2.006       .  S
O90          C91   1.265       .  A
C91          O92   1.259       .  A
C91        C1066   1.484       .  S
O92        Cr108   1.968       .  S
O93        Cr108   2.014       .  S
O93          C94   1.268       .  A
C94          O95   1.259       .  A
C94         C973   1.477       .  S
O95        Cr109   1.972       .  S
O96        Cr109   2.002       .  S
O96          C97   1.263       .  A
C97        C1085   1.490       .  S
O98        Cr107   2.007       .  S
O98         C106   1.264       .  A
O99        Cr107   1.970       .  S
O99         C100   1.258       .  A
C100        O101   1.268       .  A
C100       C1001   1.485       .  S
O101       Cr108   2.019       .  S
O102       Cr108   1.986       .  S
O102        C103   1.261       .  A
C103        O104   1.265       .  A
C103        C954   1.473       .  S
O104       Cr109   1.997       .  S
O105       Cr109   1.959       .  S
O105        C106   1.257       .  A
C106       C1038   1.465       .  S
Cr107       O110   1.773       .  S
Cr108       O110   1.777       .  S
Cr109       O110   1.772       .  S
O111       Cr129   1.977       .  S
O111        C119   1.261       .  A
O112       Cr129   1.999       .  S
O112        C113   1.264       .  A
C113        O114   1.260       .  A
C113       C1010   1.492       .  S
O114       Cr130   1.988       .  S
O115       Cr130   2.021       .  S
O115        C116   1.272       .  A
C116        O117   1.259       .  A
C116       C1570   1.489       .  S
O117       Cr131   1.971       .  S
O118       Cr131   2.007       .  S
O118        C119   1.268       .  A
C119        C861   1.481       .  S
O120       Cr129   2.000       .  S
O120        C128   1.264       .  A
O121       Cr129   1.961       .  S
O121        C122   1.260       .  A
C122        O123   1.271       .  A
C122        C889   1.491       .  S
O123       Cr130   2.027       .  S
O124       Cr130   1.983       .  S
O124        C125   1.261       .  A
C125        O126   1.265       .  A
C125        C833   1.493       .  S
O126       Cr131   2.009       .  S
O127       Cr131   1.983       .  S
O127        C128   1.260       .  A
C128        C917   1.480       .  S
Cr129       O132   1.767       .  S
Cr130       O132   1.769       .  S
Cr131       O132   1.768       .  S
O133       Cr151   2.011       .  S
O133        C141   1.267       .  A
O134       Cr151   1.971       .  S
O134        C135   1.259       .  A
C135        O136   1.267       .  A
C135        C721   1.488       .  S
O136       Cr152   2.018       .  S
O137       Cr152   1.980       .  S
O137        C138   1.260       .  A
C138        O139   1.264       .  A
C138       C1225   1.462       .  S
O139       Cr153   1.998       .  S
O140       Cr153   1.970       .  S
O140        C141   1.259       .  A
C141        C749   1.486       .  S
O142       Cr151   1.979       .  S
O142        C150   1.259       .  A
O143       Cr151   2.006       .  S
O143        C144   1.265       .  A
C144        O145   1.259       .  A
C144        C786   1.481       .  S
O145       Cr152   1.960       .  S
O146       Cr152   2.017       .  S
O146        C147   1.268       .  A
C147        O148   1.261       .  A
C147        C693   1.484       .  S
O148       Cr153   1.972       .  S
O149       Cr153   2.013       .  S
O149        C150   1.266       .  A
C150        C805   1.492       .  S
Cr151       O154   1.766       .  S
Cr152       O154   1.773       .  S
Cr153       O154   1.765       .  S
O155       Cr173   2.008       .  S
O155        C163   1.266       .  A
O156       Cr173   1.958       .  S
O156        C157   1.259       .  A
C157        O158   1.269       .  A
C157        C637   1.484       .  S
O158       Cr174   2.016       .  S
O159       Cr174   1.987       .  S
O159        C160   1.261       .  A
C160        O161   1.265       .  A
C160        C581   1.491       .  S
O161       Cr175   2.001       .  S
O162       Cr175   1.975       .  S
O162        C163   1.260       .  A
C163        C665   1.476       .  S
O164       Cr173   1.975       .  S
O164        C172   1.259       .  A
O165       Cr173   1.995       .  S
O165        C166   1.262       .  A
C166        O167   1.263       .  A
C166        C730   1.491       .  S
O167       Cr174   1.992       .  S
O168       Cr174   2.025       .  S
O168        C169   1.269       .  A
C169        O170   1.260       .  A
C169        C945   1.492       .  S
O170       Cr175   1.967       .  S
O171       Cr175   1.999       .  S
O171        C172   1.264       .  A
C172        C609   1.472       .  S
Cr173       O176   1.767       .  S
Cr174       O176   1.773       .  S
Cr175       O176   1.765       .  S
O177       Cr195   2.004       .  S
O177        C185   1.266       .  A
O178       Cr195   1.978       .  S
O178        C179   1.258       .  A
C179        O180   1.267       .  A
C179        C525   1.483       .  S
O180       Cr196   2.019       .  S
O181       Cr196   2.005       .  S
O181        C182   1.267       .  A
C182        O183   1.257       .  A
C182        C562   1.484       .  S
O183       Cr197   1.974       .  S
O184       Cr197   1.971       .  S
O184        C185   1.260       .  A
C185       C1486   1.474       .  S
O186       Cr195   1.980       .  S
O186        C194   1.259       .  A
O187       Cr195   2.006       .  S
O187        C188   1.266       .  A
C188        O189   1.262       .  A
C188       C1449   1.490       .  S
O189       Cr196   1.980       .  S
O190       Cr196   2.003       .  S
O190        C191   1.269       .  A
C191        O192   1.266       .  A
C191       C1094   1.485       .  S
O192       Cr197   1.987       .  S
O193       Cr197   2.000       .  S
O193        C194   1.261       .  A
C194       C1122   1.481       .  S
Cr195       O198   1.769       .  S
Cr196       O198   1.771       .  S
Cr197       O198   1.767       .  S
O199       Cr217   1.973       .  S
O199        C207   1.258       .  A
O200       Cr217   2.019       .  S
O200        C201   1.269       .  A
C201        O202   1.260       .  A
C201       C1626   1.492       .  S
O202       Cr218   1.964       .  S
O203       Cr218   2.011       .  S
O203        C204   1.269       .  A
C204        O205   1.263       .  A
C204       C1374   1.491       .  S
O205       Cr219   1.986       .  S
O206       Cr219   2.016       .  S
O206        C207   1.264       .  A
C207        C842   1.495       .  S
O208       Cr217   2.017       .  S
O208        C216   1.270       .  A
O209       Cr217   1.975       .  S
O209        C210   1.258       .  A
C210        O211   1.266       .  A
C210        C534   1.494       .  S
O211       Cr218   2.018       .  S
O212       Cr218   1.988       .  S
O212        C213   1.263       .  A
C213        O214   1.266       .  A
C213        C497   1.482       .  S
O214       Cr219   1.998       .  S
O215       Cr219   1.970       .  S
O215        C216   1.259       .  A
C216       C1645   1.492       .  S
Cr217       O220   1.771       .  S
Cr218       O220   1.773       .  S
Cr219       O220   1.770       .  S
O221       Cr239   1.982       .  S
O221        C229   1.258       .  A
O222       Cr239   2.008       .  S
O222        C223   1.268       .  A
C223        O224   1.263       .  A
C223        C870   1.486       .  S
O224       Cr240   1.976       .  S
O225       Cr240   2.018       .  S
O225        C226   1.269       .  A
C226        O227   1.260       .  A
C226        C814   1.493       .  S
O227       Cr241   1.980       .  S
O228       Cr241   1.997       .  S
O228        C229   1.260       .  A
C229       C1533   1.471       .  S
O230       Cr239   2.018       .  S
O230        C238   1.269       .  A
O231       Cr239   1.977       .  S
O231        C232   1.259       .  A
C232        O233   1.266       .  A
C232        C441   1.490       .  S
O233       Cr240   2.015       .  S
O234       Cr240   1.992       .  S
O234        C235   1.264       .  A
C235        O236   1.264       .  A
C235        C478   1.471       .  S
O236       Cr241   1.992       .  S
O237       Cr241   1.962       .  S
O237        C238   1.259       .  A
C238        C898   1.478       .  S
Cr239       O242   1.768       .  S
Cr240       O242   1.774       .  S
Cr241       O242   1.768       .  S
O243       Cr261   1.973       .  S
O243        C251   1.260       .  A
O244       Cr261   2.003       .  S
O244        C245   1.265       .  A
C245        O246   1.261       .  A
C245        C450   1.491       .  S
O246       Cr262   1.987       .  S
O247       Cr262   2.001       .  S
O247        C248   1.265       .  A
C248        O249   1.263       .  A
C248        C553   1.482       .  S
O249       Cr263   1.986       .  S
O250       Cr263   2.004       .  S
O250        C251   1.265       .  A
C251       C1057   1.483       .  S
O252       Cr261   2.008       .  S
O252        C260   1.266       .  A
O253       Cr261   1.964       .  S
O253        C254   1.260       .  A
C254        O255   1.267       .  A
C254       C1029   1.485       .  S
O255       Cr262   2.012       .  S
O256       Cr262   1.991       .  S
O256        C257   1.264       .  A
C257        O258   1.266       .  A
C257       C1514   1.489       .  S
O258       Cr263   2.003       .  S
O259       Cr263   1.988       .  S
O259        C260   1.262       .  A
C260        C590   1.492       .  S
Cr261       O264   1.768       .  S
Cr262       O264   1.773       .  S
Cr263       O264   1.767       .  S
O265       Cr283   1.978       .  S
O265        C273   1.258       .  A
O266       Cr283   1.990       .  S
O266        C267   1.263       .  A
C267        O268   1.265       .  A
C267        C385   1.483       .  S
O268       Cr284   2.000       .  S
O269       Cr284   2.011       .  S
O269        C270   1.269       .  A
C270        O271   1.262       .  A
C270        C422   1.483       .  S
O271       Cr285   1.974       .  S
O272       Cr285   1.994       .  S
O272        C273   1.262       .  A
C273        C646   1.475       .  S
O274       Cr283   2.008       .  S
O274        C282   1.267       .  A
O275       Cr283   1.964       .  S
O275        C276   1.260       .  A
C276        O277   1.266       .  A
C276        C618   1.483       .  S
O277       Cr284   2.006       .  S
O278       Cr284   2.008       .  S
O278        C279   1.266       .  A
C279        O280   1.261       .  A
C279       C1197   1.489       .  S
O280       Cr285   1.992       .  S
O281       Cr285   1.982       .  S
O281        C282   1.262       .  A
C282        C982   1.488       .  S
Cr283       O286   1.766       .  S
Cr284       O286   1.773       .  S
Cr285       O286   1.768       .  S
O287       Cr305   2.009       .  S
O287        C295   1.267       .  A
O288       Cr305   1.950       .  S
O288        C289   1.256       .  A
C289        O290   1.271       .  A
C289        C758   1.479       .  S
O290       Cr306   2.026       .  S
O291       Cr306   1.986       .  S
O291        C292   1.261       .  A
C292        O293   1.262       .  A
C292        C926   1.479       .  S
O293       Cr307   1.992       .  S
O294       Cr307   1.968       .  S
O294        C295   1.258       .  A
C295       C1253   1.469       .  S
O296       Cr305   1.974       .  S
O296        C304   1.258       .  A
O297       Cr305   2.001       .  S
O297        C298   1.264       .  A
C298        O299   1.263       .  A
C298        C394   1.496       .  S
O299       Cr306   1.995       .  S
O300       Cr306   2.027       .  S
O300        C301   1.272       .  A
C301        O302   1.259       .  A
C301        C469   1.485       .  S
O302       Cr307   1.965       .  S
O303       Cr307   1.991       .  S
O303        C304   1.262       .  A
C304        C777   1.470       .  S
Cr305       O308   1.769       .  S
Cr306       O308   1.773       .  S
Cr307       O308   1.768       .  S
O309       Cr327   2.016       .  S
O309        C317   1.267       .  A
O310       Cr327   1.986       .  S
O310        C311   1.261       .  A
C311        O312   1.262       .  A
C311        C357   1.482       .  S
O312       Cr328   2.000       .  S
O313       Cr328   1.990       .  S
O313        C314   1.264       .  A
C314        O315   1.265       .  A
C314        C413   1.476       .  S
O315       Cr329   1.993       .  S
O316       Cr329   1.960       .  S
O316        C317   1.258       .  A
C317       C1169   1.481       .  S
O318       Cr327   1.993       .  S
O318        C326   1.262       .  A
O319       Cr327   2.007       .  S
O319        C320   1.268       .  A
C320        O321   1.262       .  A
C320       C1141   1.486       .  S
O321       Cr328   1.974       .  S
O322       Cr328   1.997       .  S
O322        C323   1.263       .  A
C323        O324   1.260       .  A
C323        C674   1.475       .  S
O324       Cr329   1.979       .  S
O325       Cr329   2.001       .  S
O325        C326   1.264       .  A
C326       C1402   1.493       .  S
Cr327       O330   1.773       .  S
Cr328       O330   1.775       .  S
Cr329       O330   1.769       .  S
O331       Cr349   1.971       .  S
O331        C339   1.257       .  A
O332       Cr349   2.018       .  S
O332        C333   1.268       .  A
C333        O334   1.260       .  A
C333       C1309   1.488       .  S
O334       Cr350   1.966       .  S
O335       Cr350   2.023       .  S
O335        C336   1.270       .  A
C336        O337   1.259       .  A
C336       C1673   1.492       .  S
O337       Cr351   1.974       .  S
O338       Cr351   2.008       .  S
O338        C339   1.264       .  A
C339        C702   1.485       .  S
O340       Cr349   2.021       .  S
O340        C348   1.270       .  A
O341       Cr349   1.964       .  S
O341        C342   1.257       .  A
C342        O343   1.268       .  A
C342        C366   1.484       .  S
O343       Cr350   2.023       .  S
O344       Cr350   1.982       .  S
O344        C345   1.260       .  A
C345        O346   1.266       .  A
C345        C506   1.465       .  S
O346       Cr351   2.000       .  S
O347       Cr351   1.964       .  S
O347        C348   1.258       .  A
C348       C1346   1.480       .  S
Cr349       O352   1.769       .  S
Cr350       O352   1.775       .  S
Cr351       O352   1.768       .  S
C353        C354   1.403       .  A
C353        C358   1.402       .  A
C353        H363   1.082       .  S
C354        C359   1.486       .  S
C354        C355   1.410       .  A
C355        C356   1.401       .  A
C355        N360   1.430       .  S
C356        C357   1.402       .  A
C356        H361   1.079       .  S
C357        C358   1.415       .  A
C358        N362   1.431       .  S
C359        C364   1.411       .  A
C359        C368   1.402       .  A
N360        O375   1.262       .  A
N360        O376   1.262       .  A
N362        O373   1.262       .  A
N362        O374   1.262       .  A
C364        C365   1.406       .  A
C364        N369   1.429       .  S
C365        C366   1.406       .  A
C365        H370   1.081       .  S
C366        C367   1.414       .  A
C367        C368   1.397       .  A
C367        N371   1.431       .  S
C368        H372   1.081       .  S
N369        O379   1.262       .  A
N369        O380   1.262       .  A
N371        O377   1.262       .  A
N371        O378   1.262       .  A
C381        C382   1.410       .  A
C381        C386   1.410       .  A
C381        H391   1.073       .  S
C382        C387   1.495       .  S
C382        C383   1.411       .  A
C383        C384   1.400       .  A
C383        N388   1.432       .  S
C384        C385   1.404       .  A
C384        H389   1.071       .  S
C385        C386   1.410       .  A
C386        N390   1.429       .  S
C387        C392   1.410       .  A
C387        C396   1.403       .  A
N388        O403   1.262       .  A
N388        O404   1.262       .  A
N390        O401   1.262       .  A
N390        O402   1.262       .  A
C392        C393   1.409       .  A
C392        N397   1.428       .  S
C393        C394   1.410       .  A
C393        H398   1.080       .  S
C394        C395   1.417       .  A
C395        C396   1.398       .  A
C395        N399   1.430       .  S
C396        H400   1.080       .  S
N397        O407   1.262       .  A
N397        O408   1.262       .  A
N399        O405   1.262       .  A
N399        O406   1.262       .  A
C409        C410   1.398       .  A
C409        C414   1.394       .  A
C409        H419   1.083       .  S
C410        C415   1.474       .  S
C410        C411   1.407       .  A
C411        C412   1.406       .  A
C411        N416   1.429       .  S
C412        C413   1.406       .  A
C412        H417   1.082       .  S
C413        C414   1.413       .  A
C414        N418   1.429       .  S
C415        C420   1.404       .  A
C415        C424   1.402       .  A
N416        O431   1.262       .  A
N416        O432   1.262       .  A
N418        O429   1.261       .  A
N418        O430   1.262       .  A
C420        C421   1.399       .  A
C420        N425   1.429       .  S
C421        C422   1.409       .  A
C421        H426   1.080       .  S
C422        C423   1.414       .  A
C423        C424   1.400       .  A
C423        N427   1.430       .  S
C424        H428   1.080       .  S
N425        O435   1.262       .  A
N425        O436   1.262       .  A
N427        O433   1.262       .  A
N427        O434   1.262       .  A
C437        C438   1.400       .  A
C437        C442   1.402       .  A
C437        H447   1.080       .  S
C438        C443   1.481       .  S
C438        C439   1.406       .  A
C439        C440   1.403       .  A
C439        N444   1.429       .  S
C440        C441   1.408       .  A
C440        H445   1.080       .  S
C441        C442   1.417       .  A
C442        N446   1.429       .  S
C443        C448   1.406       .  A
C443        C452   1.402       .  A
N444        O459   1.262       .  A
N444        O460   1.262       .  A
N446        O457   1.262       .  A
N446        O458   1.262       .  A
C448        C449   1.398       .  A
C448        N453   1.429       .  S
C449        C450   1.408       .  A
C449        H454   1.081       .  S
C450        C451   1.417       .  A
C451        C452   1.407       .  A
C451        N455   1.429       .  S
C452        H456   1.081       .  S
N453        O463   1.262       .  A
N453        O464   1.262       .  A
N455        O461   1.262       .  A
N455        O462   1.262       .  A
C465        C466   1.401       .  A
C465        C470   1.399       .  A
C465        H475   1.078       .  S
C466        C471   1.484       .  S
C466        C467   1.410       .  A
C467        C468   1.405       .  A
C467        N472   1.432       .  S
C468        C469   1.409       .  A
C468        H473   1.077       .  S
C469        C470   1.414       .  A
C470        N474   1.431       .  S
C471        C476   1.414       .  A
C471        C480   1.408       .  A
N472        O487   1.262       .  A
N472        O488   1.262       .  A
N474        O485   1.262       .  A
N474        O486   1.262       .  A
C476        C477   1.399       .  A
C476        N481   1.435       .  S
C477        C478   1.402       .  A
C477        H482   1.080       .  S
C478        C479   1.406       .  A
C479        C480   1.404       .  A
C479        N483   1.429       .  S
C480        H484   1.081       .  S
N481        O491   1.262       .  A
N481        O492   1.263       .  A
N483        O489   1.262       .  A
N483        O490   1.262       .  A
C493        C494   1.402       .  A
C493        C498   1.408       .  A
C493        H503   1.081       .  S
C494        C499   1.474       .  S
C494        C495   1.406       .  A
C495        C496   1.391       .  A
C495        N500   1.430       .  S
C496        C497   1.404       .  A
C496        H501   1.081       .  S
C497        C498   1.415       .  A
C498        N502   1.429       .  S
C499        C504   1.407       .  A
C499        C508   1.402       .  A
N500        O515   1.262       .  A
N500        O516   1.262       .  A
N502        O513   1.262       .  A
N502        O514   1.262       .  A
C504        C505   1.401       .  A
C504        N509   1.429       .  S
C505        C506   1.403       .  A
C505        H510   1.083       .  S
C506        C507   1.407       .  A
C507        C508   1.398       .  A
C507        N511   1.430       .  S
C508        H512   1.083       .  S
N509        O519   1.262       .  A
N509        O520   1.262       .  A
N511        O517   1.262       .  A
N511        O518   1.262       .  A
C521        C522   1.408       .  A
C521        C526   1.405       .  A
C521        H531   1.078       .  S
C522        C527   1.495       .  S
C522        C523   1.413       .  A
C523        C524   1.403       .  A
C523        N528   1.431       .  S
C524        C525   1.404       .  A
C524        H529   1.079       .  S
C525        C526   1.411       .  A
C526        N530   1.429       .  S
C527        C532   1.412       .  A
C527        C536   1.406       .  A
N528        O543   1.262       .  A
N528        O544   1.262       .  A
N530        O541   1.262       .  A
N530        O542   1.262       .  A
C532        C533   1.403       .  A
C532        N537   1.430       .  S
C533        C534   1.409       .  A
C533        H538   1.078       .  S
C534        C535   1.414       .  A
C535        C536   1.405       .  A
C535        N539   1.428       .  S
C536        H540   1.078       .  S
N537        O547   1.262       .  A
N537        O548   1.262       .  A
N539        O545   1.261       .  A
N539        O546   1.262       .  A
C549        C550   1.404       .  A
C549        C554   1.403       .  A
C549        H559   1.082       .  S
C550        C555   1.475       .  S
C550        C551   1.405       .  A
C551        C552   1.399       .  A
C551        N556   1.429       .  S
C552        C553   1.407       .  A
C552        H557   1.082       .  S
C553        C554   1.412       .  A
C554        N558   1.430       .  S
C555        C560   1.407       .  A
C555        C564   1.394       .  A
N556        O571   1.262       .  A
N556        O572   1.261       .  A
N558        O569   1.262       .  A
N558        O570   1.262       .  A
C560        C561   1.409       .  A
C560        N565   1.428       .  S
C561        C562   1.408       .  A
C561        H566   1.081       .  S
C562        C563   1.422       .  A
C563        C564   1.390       .  A
C563        N567   1.433       .  S
C564        H568   1.083       .  S
N565        O575   1.262       .  A
N565        O576   1.262       .  A
N567        O573   1.262       .  A
N567        O574   1.263       .  A
C577        C578   1.404       .  A
C577        C582   1.408   1_545  A
C577        H587   1.083       .  S
C578        C583   1.487       .  S
C578        C579   1.406       .  A
C579        C580   1.398       .  A
C579        N584   1.429       .  S
C580        C581   1.408   1_545  A
C580        H585   1.083   1_545  S
C581        C582   1.418       .  A
C582        N586   1.433       .  S
C583        C588   1.407       .  A
C583        C592   1.404       .  A
N584        O599   1.262       .  A
N584        O600   1.262       .  A
N586        O597   1.262       .  A
N586        O598   1.263       .  A
C588        C589   1.400       .  A
C588        N593   1.429       .  S
C589        C590   1.409       .  A
C589        H594   1.088       .  S
C590        C591   1.416       .  A
C591        C592   1.404       .  A
C591        N595   1.429       .  S
C592        H596   1.088       .  S
N593        O603   1.262       .  A
N593        O604   1.262       .  A
N595        O601   1.262       .  A
N595        O602   1.262       .  A
C605        C606   1.397       .  A
C605        C610   1.392   1_554  A
C605        H615   1.084       .  S
C606        C611   1.471       .  S
C606        C607   1.409       .  A
C607        C608   1.402   1_554  A
C607        N612   1.431       .  S
C608        C609   1.405       .  A
C608        H613   1.083       .  S
C609        C610   1.411       .  A
C610        N614   1.429       .  S
C611        C616   1.407       .  A
C611        C620   1.400       .  A
N612        O627   1.262       .  A
N612        O628   1.262       .  A
N614        O625   1.262       .  A
N614        O626   1.262       .  A
C616        C617   1.397       .  A
C616        N621   1.432       .  S
C617        C618   1.408       .  A
C617        H622   1.080       .  S
C618        C619   1.415       .  A
C619        C620   1.398       .  A
C619        N623   1.429       .  S
C620        H624   1.080       .  S
N621        O631   1.262       .  A
N621        O632   1.262       .  A
N623        O629   1.262       .  A
N623        O630   1.262       .  A
C633        C634   1.398       .  A
C633        C638   1.400       .  A
C633        H643   1.084       .  S
C634        C639   1.468       .  S
C634        C635   1.403       .  A
C635        C636   1.395       .  A
C635        N640   1.431       .  S
C636        C637   1.409       .  A
C636        H641   1.084       .  S
C637        C638   1.417       .  A
C638        N642   1.430       .  S
C639        C644   1.402       .  A
C639        C648   1.401       .  A
N640        O655   1.262       .  A
N640        O656   1.262       .  A
N642        O653   1.262       .  A
N642        O654   1.262       .  A
C644        C645   1.394       .  A
C644        N649   1.429       .  S
C645        C646   1.406       .  A
C645        H650   1.081       .  S
C646        C647   1.414       .  A
C647        C648   1.401       .  A
C647        N651   1.431       .  S
C648        H652   1.081       .  S
N649        O659   1.262       .  A
N649        O660   1.262       .  A
N651        O657   1.262       .  A
N651        O658   1.262       .  A
C661        C662   1.400       .  A
C661        C666   1.401       .  A
C661        H671   1.081       .  S
C662        C667   1.476       .  S
C662        C663   1.409       .  A
C663        C664   1.399       .  A
C663        N668   1.430       .  S
C664        C665   1.404       .  A
C664        H669   1.081       .  S
C665        C666   1.412       .  A
C666        N670   1.429       .  S
C667        C672   1.408       .  A
C667        C676   1.402       .  A
N668        O683   1.262       .  A
N668        O684   1.262       .  A
N670        O681   1.262       .  A
N670        O682   1.262       .  A
C672        C673   1.398       .  A
C672        N677   1.430       .  S
C673        C674   1.404       .  A
C673        H678   1.084       .  S
C674        C675   1.412       .  A
C675        C676   1.402       .  A
C675        N679   1.430       .  S
C676        H680   1.084       .  S
N677        O687   1.262       .  A
N677        O688   1.262       .  A
N679        O685   1.262       .  A
N679        O686   1.262       .  A
C689        C690   1.401       .  A
C689        C694   1.402       .  A
C689        H699   1.081       .  S
C690        C695   1.476       .  S
C690        C691   1.405       .  A
C691        C692   1.399       .  A
C691        N696   1.429       .  S
C692        C693   1.407   1_455  A
C692        H697   1.081   1_455  S
C693        C694   1.414   1_655  A
C694        N698   1.429   1_455  S
C695        C700   1.405       .  A
C695        C704   1.400       .  A
N696        O711   1.262       .  A
N696        O712   1.262       .  A
N698        O709   1.262   1_655  A
N698        O710   1.262       .  A
C700        C701   1.402       .  A
C700        N705   1.429       .  S
C701        C702   1.408       .  A
C701        H706   1.081       .  S
C702        C703   1.416       .  A
C703        C704   1.399       .  A
C703        N707   1.429       .  S
C704        H708   1.082       .  S
N705        O715   1.262       .  A
N705        O716   1.262       .  A
N707        O713   1.262       .  A
N707        O714   1.262       .  A
C717        C718   1.405       .  A
C717        C722   1.405       .  A
C717        H727   1.078       .  S
C718        C723   1.488       .  S
C718        C719   1.410       .  A
C719        C720   1.399       .  A
C719        N724   1.431       .  S
C720        C721   1.406       .  A
C720        H725   1.077       .  S
C721        C722   1.415       .  A
C722        N726   1.429       .  S
C723        C728   1.410       .  A
C723        C732   1.401       .  A
N724        O739   1.262       .  A
N724        O740   1.262       .  A
N726        O737   1.262       .  A
N726        O738   1.262       .  A
C728        C729   1.406       .  A
C728        N733   1.428       .  S
C729        C730   1.408       .  A
C729        H734   1.081       .  S
C730        C731   1.417       .  A
C731        C732   1.397       .  A
C731        N735   1.430       .  S
C732        H736   1.081       .  S
N733        O743   1.262       .  A
N733        O744   1.262       .  A
N735        O741   1.262       .  A
N735        O742   1.262       .  A
C745        C746   1.400       .  A
C745        C750   1.400   1_554  A
C745        H755   1.080       .  S
C746        C751   1.478       .  S
C746        C747   1.410       .  A
C747        C748   1.401   1_554  A
C747        N752   1.433       .  S
C748        C749   1.408       .  A
C748        H753   1.080       .  S
C749        C750   1.415       .  A
C750        N754   1.429       .  S
C751        C756   1.408       .  A
C751        C760   1.402       .  A
N752        O767   1.262       .  A
N752        O768   1.262       .  A
N754        O765   1.262       .  A
N754        O766   1.262       .  A
C756        C757   1.398       .  A
C756        N761   1.432       .  S
C757        C758   1.406       .  A
C757        H762   1.083       .  S
C758        C759   1.410       .  A
C759        C760   1.402       .  A
C759        N763   1.427       .  S
C760        H764   1.083       .  S
N761        O771   1.262       .  A
N761        O772   1.262       .  A
N763        O769   1.262       .  A
N763        O770   1.262       .  A
C773        C774   1.402       .  A
C773        C778   1.401       .  A
C773        H783   1.078       .  S
C774        C779   1.466       .  S
C774        C775   1.403       .  A
C775        C776   1.392       .  A
C775        N780   1.431       .  S
C776        C777   1.404       .  A
C776        H781   1.075       .  S
C777        C778   1.411       .  A
C778        N782   1.429       .  S
C779        C784   1.404       .  A
C779        C788   1.398       .  A
N780        O795   1.262       .  A
N780        O796   1.262       .  A
N782        O793   1.262       .  A
N782        O794   1.262       .  A
C784        C785   1.393       .  A
C784        N789   1.431       .  S
C785        C786   1.407       .  A
C785        H790   1.077       .  S
C786        C787   1.417       .  A
C787        C788   1.400       .  A
C787        N791   1.430       .  S
C788        H792   1.079       .  S
N789        O799   1.262       .  A
N789        O800   1.262       .  A
N791        O797   1.262       .  A
N791        O798   1.262       .  A
C801        C802   1.404       .  A
C801        C806   1.402       .  A
C801        H811   1.079       .  S
C802        C807   1.491       .  S
C802        C803   1.409       .  A
C803        C804   1.404       .  A
C803        N808   1.429       .  S
C804        C805   1.409       .  A
C804        H809   1.079       .  S
C805        C806   1.416       .  A
C806        N810   1.431       .  S
C807        C812   1.409       .  A
C807        C816   1.404       .  A
N808        O823   1.262       .  A
N808        O824   1.262       .  A
N810        O821   1.262       .  A
N810        O822   1.262       .  A
C812        C813   1.400       .  A
C812        N817   1.430       .  S
C813        C814   1.408       .  A
C813        H818   1.079       .  S
C814        C815   1.419       .  A
C815        C816   1.406       .  A
C815        N819   1.431       .  S
C816        H820   1.078       .  S
N817        O827   1.262       .  A
N817        O828   1.262       .  A
N819        O825   1.262       .  A
N819        O826   1.262       .  A
C829        C830   1.403       .  A
C829        C834   1.402   1_455  A
C829        H839   1.082       .  S
C830        C835   1.489       .  S
C830        C831   1.409       .  A
C831        C832   1.404   1_455  A
C831        N836   1.429       .  S
C832        C833   1.408       .  A
C832        H837   1.082       .  S
C833        C834   1.417       .  A
C834        N838   1.429       .  S
C835        C840   1.408       .  A
C835        C844   1.404       .  A
N836        O851   1.262   1_455  A
N836        O852   1.262       .  A
N838        O849   1.262   1_655  A
N838        O850   1.262       .  A
C840        C841   1.399       .  A
C840        N845   1.430       .  S
C841        C842   1.408       .  A
C841        H846   1.081       .  S
C842        C843   1.418       .  A
C843        C844   1.407       .  A
C843        N847   1.429       .  S
C844        H848   1.082       .  S
N845        O855   1.262       .  A
N845        O856   1.262       .  A
N847        O853   1.262       .  A
N847        O854   1.261       .  A
C857        C858   1.400       .  A
C857        C862   1.404   1_556  A
C857        H867   1.092       .  S
C858        C863   1.474       .  S
C858        C859   1.407       .  A
C859        C860   1.393       .  A
C859        N864   1.430       .  S
C860        C861   1.403   1_556  A
C860        H865   1.092       .  S
C861        C862   1.416       .  A
C862        N866   1.429       .  S
C863        C868   1.406       .  A
C863        C872   1.399       .  A
N864        O879   1.262       .  A
N864        O880   1.262       .  A
N866        O877   1.262       .  A
N866        O878   1.262       .  A
C868        C869   1.400       .  A
C868        N873   1.432       .  S
C869        C870   1.409       .  A
C869        H874   1.081       .  S
C870        C871   1.415       .  A
C871        C872   1.400       .  A
C871        N875   1.429       .  S
C872        H876   1.081       .  S
N873        O883   1.262       .  A
N873        O884   1.262       .  A
N875        O881   1.262       .  A
N875        O882   1.262       .  A
C885        C886   1.407       .  A
C885        C890   1.407       .  A
C885        H895   1.077       .  S
C886        C891   1.489       .  S
C886        C887   1.410       .  A
C887        C888   1.396       .  A
C887        N892   1.431       .  S
C888        C889   1.408       .  A
C888        H893   1.079       .  S
C889        C890   1.415       .  A
C890        N894   1.429       .  S
C891        C896   1.413       .  A
C891        C900   1.404       .  A
N892        O907   1.262       .  A
N892        O908   1.262       .  A
N894        O905   1.262       .  A
N894        O906   1.262       .  A
C896        C897   1.405       .  A
C896        N901   1.429       .  S
C897        C898   1.404       .  A
C897        H902   1.080       .  S
C898        C899   1.410       .  A
C899        C900   1.397       .  A
C899        N903   1.430       .  S
C900        H904   1.079       .  S
N901        O911   1.262       .  A
N901        O912   1.262       .  A
N903        O909   1.262       .  A
N903        O910   1.262       .  A
C913        C914   1.404       .  A
C913        C918   1.404       .  A
C913        H923   1.079       .  S
C914        C919   1.480       .  S
C914        C915   1.407       .  A
C915        C916   1.396       .  A
C915        N920   1.430       .  S
C916        C917   1.405       .  A
C916        H921   1.080       .  S
C917        C918   1.412       .  A
C918        N922   1.429       .  S
C919        C924   1.405       .  A
C919        C928   1.404       .  A
N920        O935   1.262       .  A
N920        O936   1.262       .  A
N922        O933   1.262       .  A
N922        O934   1.262       .  A
C924        C925   1.398       .  A
C924        N929   1.429       .  S
C925        C926   1.408       .  A
C925        H930   1.079       .  S
C926        C927   1.414       .  A
C927        C928   1.403       .  A
C927        N931   1.435       .  S
C928        H932   1.078       .  S
N929        O939   1.262       .  A
N929        O940   1.262       .  A
N931        O937   1.262       .  A
N931        O938   1.263       .  A
C941        C942   1.403       .  A
C941        C946   1.405   1_545  A
C941        H951   1.081       .  S
C942        C947   1.481   1_556  S
C942        C943   1.410   1_546  A
C943        C944   1.399   1_554  A
C943        N948   1.434       .  S
C944        C945   1.408       .  A
C944        H949   1.081       .  S
C945        C946   1.416       .  A
C946        N950   1.429       .  S
C947        C952   1.410       .  A
C947        C956   1.401       .  A
N948        O963   1.263   1_565  A
N948        O964   1.262       .  A
N950        O961   1.262       .  A
N950        O962   1.262       .  A
C952        C953   1.404       .  A
C952        N957   1.429       .  S
C953        C954   1.403       .  A
C953        H958   1.083       .  S
C954        C955   1.411       .  A
C955        C956   1.400       .  A
C955        N959   1.434       .  S
C956        H960   1.084   1_554  S
N957        O967   1.262       .  A
N957        O968   1.262   1_545  A
N959        O965   1.262       .  A
N959        O966   1.262   1_554  A
C969        C970   1.404   1_545  A
C969        C974   1.402       .  A
C969        H979   1.081       .  S
C970        C975   1.482       .  S
C970        C971   1.408   1_565  A
C971        C972   1.401       .  A
C971        N976   1.429   1_545  S
C972        C973   1.405       .  A
C972        H977   1.081       .  S
C973        C974   1.410       .  A
C974        N978   1.429       .  S
C975        C980   1.405       .  A
C975        C984   1.403       .  A
N976        O991   1.262       .  A
N976        O992   1.262       .  A
N978        O989   1.262       .  A
N978        O990   1.262       .  A
C980        C981   1.399       .  A
C980        N985   1.429       .  S
C981        C982   1.408       .  A
C981        H986   1.079       .  S
C982        C983   1.415       .  A
C983        C984   1.404       .  A
C983        N987   1.429       .  S
C984        H988   1.079       .  S
N985        O995   1.262       .  A
N985        O996   1.262       .  A
N987        O993   1.262       .  A
N987        O994   1.262       .  A
C997        C998   1.401       .  A
C997       C1002   1.403       .  A
C997       H1007   1.080       .  S
C998       C1003   1.481       .  S
C998        C999   1.407       .  A
C999       C1000   1.401       .  A
C999       N1004   1.430       .  S
C1000      C1001   1.407       .  A
C1000      H1005   1.080       .  S
C1001      C1002   1.415       .  A
C1002      N1006   1.429       .  S
C1003      C1008   1.407       .  A
C1003      C1012   1.401       .  A
N1004      O1019   1.262       .  A
N1004      O1020   1.262       .  A
N1006      O1017   1.262       .  A
N1006      O1018   1.262       .  A
C1008      C1009   1.399       .  A
C1008      N1013   1.431       .  S
C1009      C1010   1.409       .  A
C1009      H1014   1.080       .  S
C1010      C1011   1.417       .  A
C1011      C1012   1.405       .  A
C1011      N1015   1.428       .  S
C1012      H1016   1.081       .  S
N1013      O1023   1.262       .  A
N1013      O1024   1.262       .  A
N1015      O1021   1.262       .  A
N1015      O1022   1.262       .  A
C1025      C1026   1.401       .  A
C1025      C1030   1.403       .  A
C1025      H1035   1.081       .  S
C1026      C1031   1.473       .  S
C1026      C1027   1.404       .  A
C1027      C1028   1.394       .  A
C1027      N1032   1.430       .  S
C1028      C1029   1.407       .  A
C1028      H1033   1.081       .  S
C1029      C1030   1.417       .  A
C1030      N1034   1.429       .  S
C1031      C1036   1.408       .  A
C1031      C1040   1.400       .  A
N1032      O1047   1.262       .  A
N1032      O1048   1.262       .  A
N1034      O1045   1.262       .  A
N1034      O1046   1.262       .  A
C1036      C1037   1.403   1_556  A
C1036      N1041   1.430       .  S
C1037      C1038   1.404       .  A
C1037      H1042   1.083       .  S
C1038      C1039   1.406       .  A
C1039      C1040   1.394   1_554  A
C1039      N1043   1.429       .  S
C1040      H1044   1.083       .  S
N1041      O1051   1.262       .  A
N1041      O1052   1.262       .  A
N1043      O1049   1.262       .  A
N1043      O1050   1.262       .  A
C1053      C1054   1.401       .  A
C1053      C1058   1.396       .  A
C1053      H1063   1.080       .  S
C1054      C1059   1.479       .  S
C1054      C1055   1.408       .  A
C1055      C1056   1.401       .  A
C1055      N1060   1.430       .  S
C1056      C1057   1.407       .  A
C1056      H1061   1.080       .  S
C1057      C1058   1.416       .  A
C1058      N1062   1.430       .  S
C1059      C1064   1.407       .  A
C1059      C1068   1.402       .  A
N1060      O1075   1.262       .  A
N1060      O1076   1.262       .  A
N1062      O1073   1.262       .  A
N1062      O1074   1.262       .  A
C1064      C1065   1.398       .  A
C1064      N1069   1.430       .  S
C1065      C1066   1.407       .  A
C1065      H1070   1.079       .  S
C1066      C1067   1.415       .  A
C1067      C1068   1.399       .  A
C1067      N1071   1.429       .  S
C1068      H1072   1.080       .  S
N1069      O1079   1.262       .  A
N1069      O1080   1.262       .  A
N1071      O1077   1.262       .  A
N1071      O1078   1.262       .  A
C1081      C1082   1.399       .  A
C1081      C1086   1.401       .  A
C1081      H1091   1.083       .  S
C1082      C1087   1.482       .  S
C1082      C1083   1.410       .  A
C1083      C1084   1.402       .  A
C1083      N1088   1.431       .  S
C1084      C1085   1.407       .  A
C1084      H1089   1.082       .  S
C1085      C1086   1.418       .  A
C1086      N1090   1.429       .  S
C1087      C1092   1.408       .  A
C1087      C1096   1.404       .  A
N1088      O1103   1.262       .  A
N1088      O1104   1.262       .  A
N1090      O1101   1.262       .  A
N1090      O1102   1.262       .  A
C1092      C1093   1.399       .  A
C1092      N1097   1.433       .  S
C1093      C1094   1.407       .  A
C1093      H1098   1.080       .  S
C1094      C1095   1.413       .  A
C1095      C1096   1.405       .  A
C1095      N1099   1.429       .  S
C1096      H1100   1.080       .  S
N1097      O1107   1.262       .  A
N1097      O1108   1.262       .  A
N1099      O1105   1.262       .  A
N1099      O1106   1.262       .  A
C1109      C1110   1.402       .  A
C1109      C1114   1.406   1_545  A
C1109      H1119   1.082       .  S
C1110      C1115   1.479       .  S
C1110      C1111   1.405       .  A
C1111      C1112   1.397       .  A
C1111      N1116   1.432       .  S
C1112      C1113   1.408   1_545  A
C1112      H1117   1.082   1_545  S
C1113      C1114   1.418       .  A
C1114      N1118   1.434       .  S
C1115      C1120   1.411       .  A
C1115      C1124   1.400       .  A
N1116      O1131   1.262       .  A
N1116      O1132   1.262       .  A
N1118      O1129   1.262       .  A
N1118      O1130   1.262       .  A
C1120      C1121   1.400       .  A
C1120      N1125   1.431       .  S
C1121      C1122   1.404       .  A
C1121      H1126   1.080       .  S
C1122      C1123   1.415       .  A
C1123      C1124   1.400       .  A
C1123      N1127   1.429       .  S
C1124      H1128   1.081       .  S
N1125      O1135   1.262       .  A
N1125      O1136   1.262       .  A
N1127      O1133   1.262       .  A
N1127      O1134   1.262       .  A
C1137      C1138   1.400       .  A
C1137      C1142   1.397       .  A
C1137      H1147   1.083       .  S
C1138      C1143   1.475       .  S
C1138      C1139   1.406       .  A
C1139      C1140   1.400       .  A
C1139      N1144   1.430       .  S
C1140      C1141   1.410       .  A
C1140      H1145   1.082       .  S
C1141      C1142   1.415       .  A
C1142      N1146   1.429       .  S
C1143      C1148   1.407       .  A
C1143      C1152   1.399       .  A
N1144      O1159   1.262       .  A
N1144      O1160   1.262       .  A
N1146      O1157   1.262       .  A
N1146      O1158   1.262       .  A
C1148      C1149   1.402   1_556  A
C1148      N1153   1.430       .  S
C1149      C1150   1.408       .  A
C1149      H1154   1.081       .  S
C1150      C1151   1.415       .  A
C1151      C1152   1.395   1_554  A
C1151      N1155   1.429       .  S
C1152      H1156   1.083       .  S
N1153      O1163   1.262       .  A
N1153      O1164   1.262       .  A
N1155      O1161   1.262       .  A
N1155      O1162   1.262   1_554  A
C1165      C1166   1.403       .  A
C1165      C1170   1.404       .  A
C1165      H1175   1.084       .  S
C1166      C1171   1.479       .  S
C1166      C1167   1.410       .  A
C1167      C1168   1.397       .  A
C1167      N1172   1.434       .  S
C1168      C1169   1.404       .  A
C1168      H1173   1.084       .  S
C1169      C1170   1.413       .  A
C1170      N1174   1.428       .  S
C1171      C1176   1.408       .  A
C1171      C1180   1.400       .  A
N1172      O1187   1.262       .  A
N1172      O1188   1.262       .  A
N1174      O1185   1.261       .  A
N1174      O1186   1.262       .  A
C1176      C1177   1.398       .  A
C1176      N1181   1.432       .  S
C1177      C1178   1.407       .  A
C1177      H1182   1.081       .  S
C1178      C1179   1.416       .  A
C1179      C1180   1.403       .  A
C1179      N1183   1.428       .  S
C1180      H1184   1.081       .  S
N1181      O1191   1.262       .  A
N1181      O1192   1.262       .  A
N1183      O1189   1.262       .  A
N1183      O1190   1.261       .  A
C1193      C1194   1.408       .  A
C1193      C1198   1.406       .  A
C1193      H1203   1.080       .  S
C1194      C1199   1.494       .  S
C1194      C1195   1.413       .  A
C1195      C1196   1.404       .  A
C1195      N1200   1.435       .  S
C1196      C1197   1.409       .  A
C1196      H1201   1.080       .  S
C1197      C1198   1.409       .  A
C1198      N1202   1.428       .  S
C1199      C1204   1.418       .  A
C1199      C1208   1.401       .  A
N1200      O1215   1.262       .  A
N1200      O1216   1.263       .  A
N1202      O1213   1.262       .  A
N1202      O1214   1.261       .  A
C1204      C1205   1.410       .  A
C1204      N1209   1.434       .  S
C1205      C1206   1.405       .  A
C1205      H1210   1.084       .  S
C1206      C1207   1.413       .  A
C1207      C1208   1.399       .  A
C1207      N1211   1.429       .  S
C1208      H1212   1.084       .  S
N1209      O1219   1.262       .  A
N1209      O1220   1.263       .  A
N1211      O1217   1.262       .  A
N1211      O1218   1.262       .  A
C1221      C1222   1.405       .  A
C1221      C1226   1.401       .  A
C1221      H1231   1.081       .  S
C1222      C1227   1.481       .  S
C1222      C1223   1.411   1_455  A
C1223      C1224   1.398       .  A
C1223      N1228   1.429   1_556  S
C1224      C1225   1.399       .  A
C1224      H1229   1.082       .  S
C1225      C1226   1.406   1_655  A
C1226      N1230   1.429       .  S
C1227      C1232   1.410       .  A
C1227      C1236   1.405   1_556  A
N1228      O1243   1.262       .  A
N1228      O1244   1.262       .  A
N1230      O1241   1.262       .  A
N1230      O1242   1.262       .  A
C1232      C1233   1.395   1_556  A
C1232      N1237   1.431       .  S
C1233      C1234   1.402       .  A
C1233      H1238   1.077       .  S
C1234      C1235   1.408       .  A
C1235      C1236   1.405       .  A
C1235      N1239   1.427       .  S
C1236      H1240   1.079       .  S
N1237      O1247   1.262       .  A
N1237      O1248   1.262       .  A
N1239      O1245   1.262       .  A
N1239      O1246   1.261       .  A
C1249      C1250   1.402       .  A
C1249      C1254   1.393       .  A
C1249      H1259   1.082       .  S
C1250      C1255   1.479   1_655  S
C1250      C1251   1.411       .  A
C1251      C1252   1.405       .  A
C1251      N1256   1.432       .  S
C1252      C1253   1.404       .  A
C1252      H1257   1.081       .  S
C1253      C1254   1.406       .  A
C1254      N1258   1.428       .  S
C1255      C1260   1.410       .  A
C1255      C1264   1.399       .  A
N1256      O1271   1.262   1_655  A
N1256      O1272   1.262       .  A
N1258      O1269   1.262       .  A
N1258      O1270   1.261       .  A
C1260      C1261   1.404       .  A
C1260      N1265   1.432       .  S
C1261      C1262   1.409       .  A
C1261      H1266   1.080       .  S
C1262      C1263   1.416       .  A
C1263      C1264   1.394       .  A
C1263      N1267   1.429       .  S
C1264      H1268   1.081       .  S
N1265      O1275   1.262   1_455  A
N1265      O1276   1.262       .  A
N1267      O1273   1.261       .  A
N1267      O1274   1.261       .  A
C1277      C1278   1.400       .  A
C1277      C1282   1.398       .  A
C1277      H1287   1.082       .  S
C1278      C1283   1.485       .  S
C1278      C1279   1.410       .  A
C1279      C1280   1.405       .  A
C1279      N1284   1.430       .  S
C1280      C1281   1.406       .  A
C1280      H1285   1.082       .  S
C1281      C1282   1.418       .  A
C1282      N1286   1.430       .  S
C1283      C1288   1.410       .  A
C1283      C1292   1.403       .  A
N1284      O1299   1.262       .  A
N1284      O1300   1.262       .  A
N1286      O1297   1.262       .  A
N1286      O1298   1.262       .  A
C1288      C1289   1.402       .  A
C1288      N1293   1.430       .  S
C1289      C1290   1.406       .  A
C1289      H1294   1.082       .  S
C1290      C1291   1.416       .  A
C1291      C1292   1.401       .  A
C1291      N1295   1.430       .  S
C1292      H1296   1.082       .  S
N1293      O1303   1.262       .  A
N1293      O1304   1.262       .  A
N1295      O1301   1.262       .  A
N1295      O1302   1.262       .  A
C1305      C1306   1.403       .  A
C1305      C1310   1.406       .  A
C1305      H1315   1.078       .  S
C1306      C1311   1.483       .  S
C1306      C1307   1.407       .  A
C1307      C1308   1.396       .  A
C1307      N1312   1.430       .  S
C1308      C1309   1.407       .  A
C1308      H1313   1.079       .  S
C1309      C1310   1.416       .  A
C1310      N1314   1.429       .  S
C1311      C1316   1.408       .  A
C1311      C1320   1.402       .  A
N1312      O1327   1.262       .  A
N1312      O1328   1.262       .  A
N1314      O1325   1.262       .  A
N1314      O1326   1.262       .  A
C1316      C1317   1.405   1_556  A
C1316      N1321   1.429       .  S
C1317      C1318   1.407       .  A
C1317      H1322   1.080       .  S
C1318      C1319   1.412   1_554  A
C1319      C1320   1.398       .  A
C1319      N1323   1.429       .  S
C1320      H1324   1.080       .  S
N1321      O1331   1.262       .  A
N1321      O1332   1.262       .  A
N1323      O1329   1.262   1_556  A
N1323      O1330   1.262       .  A
C1333      C1334   1.399       .  A
C1333      C1338   1.401       .  A
C1333      H1343   1.080       .  S
C1334      C1339   1.477       .  S
C1334      C1335   1.405       .  A
C1335      C1336   1.401       .  A
C1335      N1340   1.429       .  S
C1336      C1337   1.410       .  A
C1336      H1341   1.080       .  S
C1337      C1338   1.417       .  A
C1338      N1342   1.428       .  S
C1339      C1344   1.406       .  A
C1339      C1348   1.399       .  A
N1340      O1355   1.262       .  A
N1340      O1356   1.261       .  A
N1342      O1353   1.262       .  A
N1342      O1354   1.262       .  A
C1344      C1345   1.403       .  A
C1344      N1349   1.428       .  S
C1345      C1346   1.406       .  A
C1345      H1350   1.081       .  S
C1346      C1347   1.417       .  A
C1347      C1348   1.401       .  A
C1347      N1351   1.436       .  S
C1348      H1352   1.081       .  S
N1349      O1359   1.262       .  A
N1349      O1360   1.262       .  A
N1351      O1357   1.263       .  A
N1351      O1358   1.263       .  A
C1361      C1362   1.404       .  A
C1361      C1366   1.402       .  A
C1361      H1371   1.080       .  S
C1362      C1367   1.486       .  S
C1362      C1363   1.407       .  A
C1363      C1364   1.403       .  A
C1363      N1368   1.429       .  S
C1364      C1365   1.410       .  A
C1364      H1369   1.079       .  S
C1365      C1366   1.415       .  A
C1366      N1370   1.429       .  S
C1367      C1372   1.407       .  A
C1367      C1376   1.403       .  A
N1368      O1383   1.262       .  A
N1368      O1384   1.262       .  A
N1370      O1381   1.262       .  A
N1370      O1382   1.262       .  A
C1372      C1373   1.400       .  A
C1372      N1377   1.430       .  S
C1373      C1374   1.408       .  A
C1373      H1378   1.081       .  S
C1374      C1375   1.416       .  A
C1375      C1376   1.405       .  A
C1375      N1379   1.429       .  S
C1376      H1380   1.080       .  S
N1377      O1387   1.262       .  A
N1377      O1388   1.262       .  A
N1379      O1385   1.262       .  A
N1379      O1386   1.262       .  A
C1389      C1390   1.405       .  A
C1389      C1394   1.409       .  A
C1389      H1399   1.079       .  S
C1390      C1395   1.485   1_545  S
C1390      C1391   1.403       .  A
C1391      C1392   1.399       .  A
C1391      N1396   1.429       .  S
C1392      C1393   1.410       .  A
C1392      H1397   1.079       .  S
C1393      C1394   1.416       .  A
C1394      N1398   1.429       .  S
C1395      C1400   1.404       .  A
C1395      C1404   1.405       .  A
N1396      O1411   1.262   1_545  A
N1396      O1412   1.262   1_545  A
N1398      O1409   1.262       .  A
N1398      O1410   1.262       .  A
C1400      C1401   1.402       .  A
C1400      N1405   1.429       .  S
C1401      C1402   1.410       .  A
C1401      H1406   1.080       .  S
C1402      C1403   1.416       .  A
C1403      C1404   1.407       .  A
C1403      N1407   1.431       .  S
C1404      H1408   1.080       .  S
N1405      O1415   1.261   1_565  A
N1405      O1416   1.262   1_565  A
N1407      O1413   1.262       .  A
N1407      O1414   1.262       .  A
C1417      C1418   1.401       .  A
C1417      C1422   1.399   1_545  A
C1417      H1427   1.079       .  S
C1418      C1423   1.478   1_554  S
C1418      C1419   1.411   1_545  A
C1419      C1420   1.402       .  A
C1419      N1424   1.433   1_554  S
C1420      C1421   1.407       .  A
C1420      H1425   1.075       .  S
C1421      C1422   1.413       .  A
C1422      N1426   1.428       .  S
C1423      C1428   1.410       .  A
C1423      C1432   1.402   1_556  A
N1424      O1439   1.263       .  A
N1424      O1440   1.262       .  A
N1426      O1437   1.262       .  A
N1426      O1438   1.262   1_565  A
C1428      C1429   1.403       .  A
C1428      N1433   1.430       .  S
C1429      C1430   1.403       .  A
C1429      H1434   1.083       .  S
C1430      C1431   1.406       .  A
C1431      C1432   1.393   1_556  A
C1431      N1435   1.428   1_556  S
C1432      H1436   1.083       .  S
N1433      O1443   1.262       .  A
N1433      O1444   1.262       .  A
N1435      O1441   1.261       .  A
N1435      O1442   1.262       .  A
C1445      C1446   1.402       .  A
C1445      C1450   1.401       .  A
C1445      H1455   1.078       .  S
C1446      C1451   1.484       .  S
C1446      C1447   1.406       .  A
C1447      C1448   1.403       .  A
C1447      N1452   1.429       .  S
C1448      C1449   1.409       .  A
C1448      H1453   1.078       .  S
C1449      C1450   1.417       .  A
C1450      N1454   1.429       .  S
C1451      C1456   1.404       .  A
C1451      C1460   1.406       .  A
N1452      O1467   1.262       .  A
N1452      O1468   1.262       .  A
N1454      O1465   1.262       .  A
N1454      O1466   1.262       .  A
C1456      C1457   1.396       .  A
C1456      N1461   1.430       .  S
C1457      C1458   1.410   1_554  A
C1457      H1462   1.064       .  S
C1458      C1459   1.416       .  A
C1459      C1460   1.410   1_556  A
C1459      N1463   1.428       .  S
C1460      H1464   1.071       .  S
N1461      O1471   1.262       .  A
N1461      O1472   1.262       .  A
N1463      O1469   1.261       .  A
N1463      O1470   1.262       .  A
C1473      C1474   1.403       .  A
C1473      C1478   1.402       .  A
C1473      H1483   1.081       .  S
C1474      C1479   1.472       .  S
C1474      C1475   1.407       .  A
C1475      C1476   1.395       .  A
C1475      N1480   1.432       .  S
C1476      C1477   1.405       .  A
C1476      H1481   1.081       .  S
C1477      C1478   1.411       .  A
C1478      N1482   1.429       .  S
C1479      C1484   1.408       .  A
C1479      C1488   1.398       .  A
N1480      O1495   1.262       .  A
N1480      O1496   1.262       .  A
N1482      O1493   1.262       .  A
N1482      O1494   1.262       .  A
C1484      C1485   1.400       .  A
C1484      N1489   1.431       .  S
C1485      C1486   1.405       .  A
C1485      H1490   1.081       .  S
C1486      C1487   1.415       .  A
C1487      C1488   1.397       .  A
C1487      N1491   1.435       .  S
C1488      H1492   1.082       .  S
N1489      O1499   1.262       .  A
N1489      O1500   1.262       .  A
N1491      O1497   1.262       .  A
N1491      O1498   1.262       .  A
C1501      C1502   1.404       .  A
C1501      C1506   1.407       .  A
C1501      H1511   1.081       .  S
C1502      C1507   1.487       .  S
C1502      C1503   1.407       .  A
C1503      C1504   1.403       .  A
C1503      N1508   1.433       .  S
C1504      C1505   1.411       .  A
C1504      H1509   1.080       .  S
C1505      C1506   1.416       .  A
C1506      N1510   1.429       .  S
C1507      C1512   1.409       .  A
C1507      C1516   1.403       .  A
N1508      O1523   1.262       .  A
N1508      O1524   1.262       .  A
N1510      O1521   1.262       .  A
N1510      O1522   1.262       .  A
C1512      C1513   1.402       .  A
C1512      N1517   1.430       .  S
C1513      C1514   1.408       .  A
C1513      H1518   1.080       .  S
C1514      C1515   1.414       .  A
C1515      C1516   1.406       .  A
C1515      N1519   1.429       .  S
C1516      H1520   1.080       .  S
N1517      O1527   1.262       .  A
N1517      O1528   1.262       .  A
N1519      O1525   1.262       .  A
N1519      O1526   1.262       .  A
C1529      C1530   1.405       .  A
C1529      C1534   1.403       .  A
C1529      H1539   1.081       .  S
C1530      C1535   1.479       .  S
C1530      C1531   1.407       .  A
C1531      C1532   1.399       .  A
C1531      N1536   1.429       .  S
C1532      C1533   1.403       .  A
C1532      H1537   1.082       .  S
C1533      C1534   1.409       .  A
C1534      N1538   1.431       .  S
C1535      C1540   1.406   1_655  A
C1535      C1544   1.400       .  A
N1536      O1551   1.262       .  A
N1536      O1552   1.261       .  A
N1538      O1549   1.261       .  A
N1538      O1550   1.262       .  A
C1540      C1541   1.401       .  A
C1540      N1545   1.429   1_455  S
C1541      C1542   1.409       .  A
C1541      H1546   1.080       .  S
C1542      C1543   1.418       .  A
C1543      C1544   1.401   1_455  A
C1543      N1547   1.429       .  S
C1544      H1548   1.080       .  S
N1545      O1555   1.262       .  A
N1545      O1556   1.262   1_655  A
N1547      O1553   1.262       .  A
N1547      O1554   1.262       .  A
C1557      C1558   1.403       .  A
C1557      C1562   1.397       .  A
C1557      H1567   1.081   1_556  S
C1558      C1563   1.484   1_456  S
C1558      C1559   1.411       .  A
C1559      C1560   1.407       .  A
C1559      N1564   1.429       .  S
C1560      C1561   1.405       .  A
C1560      H1565   1.081       .  S
C1561      C1562   1.408       .  A
C1562      N1566   1.429       .  S
C1563      C1568   1.408       .  A
C1563      C1572   1.402   1_554  A
N1564      O1579   1.262   1_455  A
N1564      O1580   1.262   1_455  A
N1566      O1577   1.262       .  A
N1566      O1578   1.261   1_556  A
C1568      C1569   1.401       .  A
C1568      N1573   1.429   1_655  S
C1569      C1570   1.406       .  A
C1569      H1574   1.080       .  S
C1570      C1571   1.418       .  A
C1571      C1572   1.403   1_554  A
C1571      N1575   1.431   1_554  S
C1572      H1576   1.080       .  S
N1573      O1583   1.262       .  A
N1573      O1584   1.262       .  A
N1575      O1581   1.262       .  A
N1575      O1582   1.262       .  A
C1585      C1586   1.401       .  A
C1585      C1590   1.399       .  A
C1585      H1595   1.080       .  S
C1586      C1591   1.493       .  S
C1586      C1587   1.415       .  A
C1587      C1588   1.410       .  A
C1587      N1592   1.433       .  S
C1588      C1589   1.408       .  A
C1588      H1593   1.079       .  S
C1589      C1590   1.416       .  A
C1590      N1594   1.429       .  S
C1591      C1596   1.414       .  A
C1591      C1600   1.406       .  A
N1592      O1607   1.262       .  A
N1592      O1608   1.262       .  A
N1594      O1605   1.262       .  A
N1594      O1606   1.262       .  A
C1596      C1597   1.405       .  A
C1596      N1601   1.433       .  S
C1597      C1598   1.407       .  A
C1597      H1602   1.083       .  S
C1598      C1599   1.410       .  A
C1599      C1600   1.405       .  A
C1599      N1603   1.429       .  S
C1600      H1604   1.083       .  S
N1601      O1611   1.262       .  A
N1601      O1612   1.262       .  A
N1603      O1609   1.261       .  A
N1603      O1610   1.262       .  A
C1613      C1614   1.402       .  A
C1613      C1618   1.401       .  A
C1613      H1623   1.078       .  S
C1614      C1619   1.481       .  S
C1614      C1615   1.407       .  A
C1615      C1616   1.404   1_554  A
C1615      N1620   1.429       .  S
C1616      C1617   1.405       .  A
C1616      H1621   1.075       .  S
C1617      C1618   1.412   1_556  A
C1618      N1622   1.433   1_554  S
C1619      C1624   1.404       .  A
C1619      C1628   1.403       .  A
N1620      O1635   1.262       .  A
N1620      O1636   1.262       .  A
N1622      O1633   1.262       .  A
N1622      O1634   1.262   1_556  A
C1624      C1625   1.397       .  A
C1624      N1629   1.430       .  S
C1625      C1626   1.410       .  A
C1625      H1630   1.078       .  S
C1626      C1627   1.417       .  A
C1627      C1628   1.406       .  A
C1627      N1631   1.429       .  S
C1628      H1632   1.078       .  S
N1629      O1639   1.262       .  A
N1629      O1640   1.262       .  A
N1631      O1637   1.262       .  A
N1631      O1638   1.262       .  A
C1641      C1642   1.401       .  A
C1641      C1646   1.400       .  A
C1641      H1651   1.081       .  S
C1642      C1647   1.484       .  S
C1642      C1643   1.408       .  A
C1643      C1644   1.403       .  A
C1643      N1648   1.429       .  S
C1644      C1645   1.408       .  A
C1644      H1649   1.080       .  S
C1645      C1646   1.419       .  A
C1646      N1650   1.429       .  S
C1647      C1652   1.408       .  A
C1647      C1656   1.402       .  A
N1648      O1663   1.262       .  A
N1648      O1664   1.262       .  A
N1650      O1661   1.262       .  A
N1650      O1662   1.262       .  A
C1652      C1653   1.401       .  A
C1652      N1657   1.430       .  S
C1653      C1654   1.409       .  A
C1653      H1658   1.079       .  S
C1654      C1655   1.416       .  A
C1655      C1656   1.401       .  A
C1655      N1659   1.429       .  S
C1656      H1660   1.080       .  S
N1657      O1667   1.262       .  A
N1657      O1668   1.262       .  A
N1659      O1665   1.262       .  A
N1659      O1666   1.262       .  A
C1669      C1670   1.402       .  A
C1669      C1674   1.404       .  A
C1669      H1679   1.080       .  S
C1670      C1675   1.485       .  S
C1670      C1671   1.407       .  A
C1671      C1672   1.402       .  A
C1671      N1676   1.429       .  S
C1672      C1673   1.408       .  A
C1672      H1677   1.080       .  S
C1673      C1674   1.418       .  A
C1674      N1678   1.429       .  S
C1675      C1680   1.408       .  A
C1675      C1684   1.403       .  A
N1676      O1691   1.262       .  A
N1676      O1692   1.262       .  A
N1678      O1689   1.262       .  A
N1678      O1690   1.262       .  A
C1680      C1681   1.403       .  A
C1680      N1685   1.429       .  S
C1681      C1682   1.407       .  A
C1681      H1686   1.080       .  S
C1682      C1683   1.415       .  A
C1683      C1684   1.403       .  A
C1683      N1687   1.431       .  S
C1684      H1688   1.080       .  S
N1685      O1695   1.262       .  A
N1685      O1696   1.262       .  A
N1687      O1693   1.262       .  A
N1687      O1694   1.262       .  A
