geometry optimzed in LAMMPS
_audit_creation_date              2020-12-01 
_audit_creation_method            'lammps2cif' 
_symmetry_space_group_name_H-M    'P1' 
_symmetry_Int_Tables_number       1 
_symmetry_cell_setting            triclinic 
loop_ 
_symmetry_equiv_pos_as_xyz 
  x,y,z 
_cell_length_a                    38.79194953 
_cell_length_b                    38.81790705427528 
_cell_length_c                    44.26286358099015 
_cell_angle_alpha                 89.97167342531796 
_cell_angle_beta                  89.95445749618307 
_cell_angle_gamma                 90.06126918130965 
loop_ 
_atom_site_label 
_atom_site_type_symbol 
_atom_site_fract_x 
_atom_site_fract_y 
_atom_site_fract_z 
_atom_site_charge 
O1          O  0.17483008  0.35353524  0.46434699    -0.86800
O2          O  0.18468324  0.31289316  0.41463398    -0.83900
C3          C  0.17087720  0.28480369  0.42250820     0.96600
O4          O  0.13850798  0.28207592  0.42411607    -0.83900
O5          O  0.07060926  0.30342519  0.43294569    -0.86600
C6          C  0.06751870  0.31261933  0.46027813     1.01100
O7          O  0.08372917  0.33829391  0.47031103    -0.79300
O8          O  0.13219303  0.38859485  0.47520742    -0.79500
C9          C  0.15830958  0.37133346  0.48318064     1.01100
O10         O  0.16312159  0.41198771  0.42655117    -0.86800
O11         O  0.16460772  0.36950109  0.37728535    -0.83900
C12         C  0.15518371  0.34679951  0.35871490     0.96600
O13         O  0.14069441  0.31933538  0.36764744    -0.83900
O14         O  0.07520688  0.34356248  0.37875922    -0.86500
C15         C  0.05258098  0.36247754  0.39075105     1.01100
O16         O  0.05516340  0.37150979  0.41806410    -0.79400
O17         O  0.10787317  0.41797373  0.41896554    -0.79500
C18         C  0.13794138  0.43016378  0.41813445     1.01100
Cr19       Cr  0.16860542  0.36107981  0.42074781     1.93700
Cr20       Cr  0.10762174  0.31467062  0.40249942     1.93200
Cr21       Cr  0.09677631  0.37719268  0.44407605     1.39100
O22         O  0.12421764  0.35068887  0.42257177    -1.24600
O23         O  0.39115427  0.16718657  0.39655889    -0.86800
O24         O  0.32713209  0.17839606  0.37466871    -0.83900
C25         C  0.32284692  0.15462506  0.35526795     0.83800
O26         O  0.31508714  0.12452251  0.36348560    -0.83900
O27         O  0.32178938  0.06515767  0.39528278    -0.86600
C28         C  0.35290013  0.05718938  0.39003690     1.01100
O29         O  0.37699413  0.07569812  0.40027560    -0.79300
O30         O  0.41130438  0.12996129  0.42894582    -0.79500
C31         C  0.41620674  0.15128927  0.40781408     1.01100
O32         O  0.36757491  0.17837626  0.45881178    -0.86800
O33         O  0.30265061  0.18641886  0.43660170    -0.83900
C34         C  0.27389205  0.17936563  0.42510872     0.96600
O35         O  0.27074099  0.15320491  0.40835023    -0.83900
O36         O  0.28427320  0.09545178  0.44458210    -0.86500
C37         C  0.30138912  0.07228636  0.45782667     1.01100
O38         O  0.33312893  0.06818545  0.45218190    -0.79400
O39         O  0.36127063  0.12575581  0.47637864    -0.79500
C40         C  0.36502077  0.15755410  0.48091392     1.01100
Cr41       Cr  0.34656404  0.17421022  0.41695973     1.93700
Cr42       Cr  0.30064468  0.11118504  0.40425474     1.93200
Cr43       Cr  0.36858466  0.10211114  0.43794555     1.39100
O44         O  0.33857678  0.12942259  0.41979691    -1.24600
O45         O  0.17593045  0.69112690  0.03871493    -0.86800
O46         O  0.18494365  0.73162240  0.08885457    -0.83900
C47         C  0.17062412  0.75968825  0.08165880     0.96600
O48         O  0.13825469  0.76174974  0.07978518    -0.83900
O49         O  0.07124625  0.73886042  0.06927465    -0.86600
C50         C  0.06910477  0.72966063  0.04181909     1.01100
O51         O  0.08619140  0.70434704  0.03210312    -0.79300
O52         O  0.13495100  0.65398681  0.02864656    -0.79500
C53         C  0.15966278  0.67283850  0.02005208     1.01100
O54         O  0.16504843  0.63186224  0.07680112    -0.86800
O55         O  0.16563506  0.67432217  0.12571966    -0.83900
C56         C  0.15490787  0.69634289  0.14433959     0.96600
O57         O  0.14021689  0.72369039  0.13557066    -0.83900
O58         O  0.07559905  0.69806782  0.12368106    -0.86500
C59         C  0.05233600  0.68129283  0.11037237     1.01100
O60         O  0.05617079  0.67219312  0.08323594    -0.79400
O61         O  0.10982697  0.62507513  0.08457678    -0.79500
C62         C  0.14014451  0.61325303  0.08548699     1.01100
Cr63       Cr  0.16984132  0.68307931  0.08240738     1.93700
Cr64       Cr  0.10773455  0.72807251  0.10050326     1.93200
Cr65       Cr  0.09871882  0.66565387  0.05875166     1.39100
O66         O  0.12536931  0.69263903  0.08043522    -1.24600
O67         O  0.38968694  0.87713939  0.10387105    -0.86800
O68         O  0.32664228  0.86720044  0.12767878    -0.83900
C69         C  0.32517076  0.89070091  0.14758579     0.96600
O70         O  0.31739004  0.92107872  0.14017776    -0.83900
O71         O  0.32372607  0.98030409  0.10764357    -0.86600
C72         C  0.35544343  0.98734279  0.11079642     1.01100
O73         O  0.37804393  0.96920337  0.09789838    -0.79300
O74         O  0.40912221  0.91373368  0.07031620    -0.79500
C75         C  0.41440935  0.89233520  0.09136322     1.01100
O76         O  0.36489048  0.86545431  0.04320863    -0.86800
O77         O  0.29994557  0.86045898  0.06640398    -0.83900
C78         C  0.27184564  0.86728641  0.07914716     0.96600
O79         O  0.26967119  0.89311899  0.09652900    -0.83900
O80         O  0.28204948  0.95136644  0.06031954    -0.86500
C81         C  0.29912259  0.97298260  0.04504194     1.01100
O82         O  0.33133062  0.97599304  0.04845331    -0.79400
O83         O  0.35677584  0.91670629  0.02359836    -0.79500
C84         C  0.36169057  0.88481667  0.02028317     1.01100
Cr85       Cr  0.34456050  0.87100704  0.08500439     1.93700
Cr86       Cr  0.30076613  0.93484803  0.09970206     1.93200
Cr87       Cr  0.36664306  0.94182587  0.06160422     1.39100
O88         O  0.33733524  0.91584067  0.08210468    -1.24600
O89         O  0.63804468  0.16552748  0.10750830    -0.86800
O90         O  0.70238969  0.17621334  0.12877547    -0.83900
C91         C  0.70516621  0.15224132  0.14815833     0.96600
O92         O  0.71246980  0.12201583  0.14002342    -0.83900
O93         O  0.70487814  0.06244986  0.10849536    -0.86600
C94         C  0.67354789  0.05473823  0.11326413     1.01100
O95         O  0.64991959  0.07393106  0.10321237    -0.79300
O96         O  0.61704210  0.12916244  0.07475928    -0.79500
C97         C  0.61268809  0.15013789  0.09620332     1.01100
O98         O  0.66077684  0.17658766  0.04512441    -0.86800
O99         O  0.72645566  0.18354568  0.06673063    -0.83900
C100        C  0.75509165  0.17620111  0.07836523     0.96600
O101        O  0.75781282  0.14988329  0.09509082    -0.83900
O102        O  0.74325016  0.09187731  0.05921028    -0.86500
C103        C  0.72543426  0.06935063  0.04576258     1.01100
O104        O  0.69360536  0.06600420  0.05135012    -0.79400
O105        O  0.66679467  0.12409771  0.02727496    -0.79500
C106        C  0.66303395  0.15591313  0.02293651     1.01100
Cr107      Cr  0.68243523  0.17209005  0.08669134     1.93700
Cr108      Cr  0.72705177  0.10821673  0.09942418     1.93200
Cr109      Cr  0.65898286  0.10046420  0.06564537     1.39100
O110        O  0.68958202  0.12714764  0.08377938    -1.24600
O111        O  0.85523221  0.35061053  0.04074395    -0.86800
O112        O  0.84577588  0.30965998  0.09040313    -0.83900
C113        C  0.85920978  0.28143834  0.08254347     0.96600
O114        O  0.89154915  0.27854046  0.08064863    -0.83900
O115        O  0.95895779  0.30004221  0.06904266    -0.86600
C116        C  0.96089702  0.30993407  0.04176285     1.01100
O117        O  0.94434324  0.33586141  0.03274440    -0.79300
O118        O  0.89672715  0.38696305  0.03016045    -0.79500
C119        C  0.87142225  0.36873245  0.02190502     1.01100
O120        O  0.86823730  0.40889744  0.07956876    -0.86800
O121        O  0.86685653  0.36558489  0.12768796    -0.83900
C122        C  0.87724210  0.34327495  0.14619202     0.96600
O123        O  0.89233037  0.31614741  0.13721420    -0.83900
O124        O  0.95750256  0.33971129  0.12378109    -0.86500
C125        C  0.97989096  0.35827777  0.11098065     1.01100
O126        O  0.97600545  0.36752981  0.08387895    -0.79400
O127        O  0.92365847  0.41497870  0.08600042    -0.79500
C128        C  0.89357158  0.42699770  0.08815049     1.01100
Cr129      Cr  0.86219449  0.35781407  0.08441305     1.93700
Cr130      Cr  0.92364759  0.31119800  0.10112055     1.93200
Cr131      Cr  0.93320250  0.37440037  0.05984734     1.39100
O132        O  0.90647199  0.34751101  0.08182772    -1.24600
O133        O  0.85531927  0.66605427  0.46281199    -0.86800
O134        O  0.84814898  0.73109660  0.43937991    -0.83900
C135        C  0.85586920  0.75946125  0.42732753     0.96600
O136        O  0.88235769  0.76180734  0.41074986    -0.83900
O137        O  0.94053655  0.74845305  0.44640581    -0.86600
C138        C  0.96302521  0.73118514  0.46035235     1.01100
O139        O  0.96591885  0.69911676  0.45610709    -0.79300
O140        O  0.90711290  0.67398252  0.48166270    -0.79500
C141        C  0.87524040  0.66937967  0.48540465     1.01100
O142        O  0.86710809  0.64155518  0.40139737    -0.86800
O143        O  0.85587490  0.70450632  0.37832819    -0.83900
C144        C  0.87940916  0.70781493  0.35858525     0.96600
O145        O  0.90964910  0.71580900  0.36618739    -0.83900
O146        O  0.96890758  0.70790439  0.39789533    -0.86500
C147        C  0.97571199  0.67630308  0.39373634     1.01100
O148        O  0.95747244  0.65332062  0.40615768    -0.79400
O149        O  0.90236227  0.62161137  0.43544796    -0.79500
C150        C  0.88215069  0.61651975  0.41351049     1.01100
Cr151      Cr  0.85997415  0.68641549  0.42085721     1.93700
Cr152      Cr  0.92373628  0.73088853  0.40679303     1.93200
Cr153      Cr  0.93109722  0.66418324  0.44333373     1.39100
O154        O  0.90476156  0.69397795  0.42373050    -1.24600
O155        O  0.62426795  0.87112326  0.42669468    -0.86800
O156        O  0.66634430  0.86933759  0.37737971    -0.83900
C157        C  0.68763657  0.88028524  0.35805498     0.96600
O158        O  0.71460951  0.89634498  0.36632829    -0.83900
O159        O  0.69120347  0.96097375  0.38020082    -0.86600
C160        C  0.67298552  0.98346848  0.39309291     1.01100
O161        O  0.66393897  0.97958222  0.42031853    -0.79300
O162        O  0.61719917  0.92634162  0.41989252    -0.79500
C163        C  0.60558716  0.89606049  0.41833477     1.01100
O164        O  0.68364550  0.85980938  0.46491743    -0.86800
O165        O  0.72324613  0.84997848  0.41408231    -0.83900
C166        C  0.75145817  0.86381349  0.42131440     0.96600
O167        O  0.75418566  0.89618951  0.42244529    -0.83900
O168        O  0.73222685  0.96341549  0.43419483    -0.86500
C169        C  0.72288003  0.96561324  0.46163128     1.01100
O170        O  0.69727258  0.94889099  0.47128806    -0.79400
O171        O  0.64636272  0.90025705  0.47565966    -0.79500
C172        C  0.66383259  0.87422470  0.48361324     1.01100
Cr173      Cr  0.67526177  0.86584658  0.42092678     1.93700
Cr174      Cr  0.72051326  0.92771055  0.40246304     1.93200
Cr175      Cr  0.65820163  0.93678652  0.44509665     1.39100
O176        O  0.68491302  0.91026324  0.42272144    -1.24600
O177        O  0.35217127  0.19512417  0.21291387    -0.86800
O178        O  0.34604383  0.23380048  0.16116785    -0.83900
C179        C  0.36036553  0.26167815  0.16880559     0.96600
O180        O  0.39278899  0.26364850  0.17052606    -0.83900
O181        O  0.45889146  0.23961076  0.18405060    -0.86600
C182        C  0.46000769  0.23146810  0.21186754     1.01100
O183        O  0.44090629  0.20790477  0.22214568    -0.79300
O184        O  0.39128838  0.15724645  0.22573276    -0.79500
C185        C  0.36516327  0.17525717  0.23230538     1.01100
O186        O  0.36400503  0.13462922  0.17631136    -0.86800
O187        O  0.36497815  0.17527287  0.12613256    -0.83900
C188        C  0.37652490  0.19621676  0.10681529     0.96600
O189        O  0.39282101  0.22296514  0.11517944    -0.83900
O190        O  0.45611078  0.19659603  0.13106166    -0.86500
C191        C  0.47861530  0.18044014  0.14591393     1.01100
O192        O  0.47343654  0.17308823  0.17334572    -0.79400
O193        O  0.41952858  0.12673607  0.17161838    -0.79500
C194        C  0.38912646  0.11556615  0.16908945     1.01100
Cr195      Cr  0.35994751  0.18550656  0.16937877     1.93700
Cr196      Cr  0.42355750  0.22838729  0.15179704     1.93200
Cr197      Cr  0.42942208  0.16805982  0.19648452     1.39100
O198        O  0.40437059  0.19425500  0.17252933    -1.24600
O199        O  0.12866498  0.36970755  0.17513074    -0.86800
O200        O  0.17227751  0.36912515  0.12701756    -0.83900
C201        C  0.19386624  0.38059773  0.10827164     0.96600
O202        O  0.22073836  0.39649198  0.11689198    -0.83900
O203        O  0.19581499  0.46132642  0.12892700    -0.86600
C204        C  0.17600349  0.48322177  0.14084314     1.01100
O205        O  0.16592296  0.47934257  0.16772537    -0.79300
O206        O  0.12132694  0.42444082  0.16595931    -0.79500
C207        C  0.11003048  0.39399380  0.16543660     1.01100
O208        O  0.18712603  0.36063747  0.21438312    -0.86800
O209        O  0.22856657  0.35121287  0.16450284    -0.83900
C210        C  0.25658038  0.36550019  0.17175950     0.96600
O211        O  0.25859253  0.39789072  0.17342325    -0.83900
O212        O  0.23466498  0.46457350  0.18430942    -0.86500
C213        C  0.22384279  0.46704699  0.21130747     1.01100
O214        O  0.19771027  0.45057231  0.22008801    -0.79400
O215        O  0.14880715  0.40084928  0.22310902    -0.79500
C216        C  0.16773100  0.37657554  0.23243787     1.01100
Cr217      Cr  0.18003200  0.36587506  0.17039768     1.93700
Cr218      Cr  0.22486209  0.42857626  0.15249490     1.93200
Cr219      Cr  0.16048251  0.43685180  0.19262094     1.39100
O220        O  0.18887616  0.41058824  0.17187931    -1.24600
O221        O  0.90369988  0.37094495  0.32858033    -0.86800
O222        O  0.86105078  0.36886179  0.37739774    -0.83900
C223        C  0.83891439  0.37885340  0.39624920     0.96600
O224        O  0.81173850  0.39415419  0.38773860    -0.83900
O225        O  0.83680083  0.45927179  0.37572242    -0.86600
C226        C  0.85331432  0.48271787  0.36229123     1.01100
O227        O  0.86192308  0.47905098  0.33500127    -0.79300
O228        O  0.90986963  0.42632519  0.33582740    -0.79500
C229        C  0.92212848  0.39622301  0.33664904     1.01100
O230        O  0.84512215  0.35908791  0.29028162    -0.86800
O231        O  0.80426178  0.34948836  0.34026179    -0.83900
C232        C  0.77587351  0.36332940  0.33327683     0.96600
O233        O  0.77323392  0.39572442  0.33191969    -0.83900
O234        O  0.79558801  0.46328477  0.32132803    -0.86500
C235        C  0.80472831  0.46547305  0.29381426     1.01100
O236        O  0.82991450  0.44828805  0.28405174    -0.79400
O237        O  0.88133400  0.40089608  0.28008227    -0.79500
C238        C  0.86359736  0.37532468  0.27170915     1.01100
Cr239      Cr  0.85261356  0.36523518  0.33403419     1.93700
Cr240      Cr  0.80688152  0.42671394  0.35257487     1.93200
Cr241      Cr  0.86895022  0.43665405  0.31041700     1.39100
O242        O  0.84248475  0.40955510  0.33228211    -1.24600
O243        O  0.67759108  0.19205320  0.29086838    -0.86800
O244        O  0.68491146  0.23149632  0.34222374    -0.83900
C245        C  0.67110591  0.25960077  0.33460400     0.96600
O246        O  0.63871449  0.26199019  0.33271875    -0.83900
O247        O  0.57233158  0.23859995  0.31909313    -0.86600
C248        C  0.57087066  0.22951359  0.29151623     1.01100
O249        O  0.58892368  0.20483837  0.28187000    -0.79300
O250        O  0.63802506  0.15402272  0.27952134    -0.79500
C251        C  0.66375953  0.17213040  0.27192136     1.01100
O252        O  0.66563702  0.13210120  0.32870747    -0.86800
O253        O  0.66506032  0.17407526  0.37815990    -0.83900
C254        C  0.65317856  0.19514434  0.39720944     0.96600
O255        O  0.63738985  0.22203491  0.38853556    -0.83900
O256        O  0.57376562  0.19680841  0.37309410    -0.86500
C257        C  0.55113662  0.18033188  0.35867199     1.01100
O258        O  0.55631299  0.17195759  0.33150837    -0.79400
O259        O  0.61011116  0.12531203  0.33469692    -0.79500
C260        C  0.64037149  0.11364391  0.33682476     1.01100
Cr261      Cr  0.67015460  0.18329764  0.33472395     1.93700
Cr262      Cr  0.60712203  0.22745928  0.35176573     1.93200
Cr263      Cr  0.60026558  0.16584400  0.30861406     1.39100
O264        O  0.62578089  0.19257158  0.33169051    -1.24600
O265        O  0.66784448  0.87038606  0.21056151    -0.86800
O266        O  0.67466776  0.80557820  0.18797555    -0.83900
C267        C  0.66787158  0.77711167  0.17591222     0.96600
O268        O  0.64196094  0.77439609  0.15868342    -0.83900
O269        O  0.58341249  0.78725670  0.19488130    -0.86600
C270        C  0.56060939  0.80443361  0.20865377     1.01100
O271        O  0.55728600  0.83642912  0.20393767    -0.79300
O272        O  0.61541303  0.86370582  0.22854158    -0.79500
C273        C  0.64727900  0.86772244  0.23278918     1.01100
O274        O  0.65733798  0.89499835  0.14924791    -0.86800
O275        O  0.66751048  0.83112866  0.12610069    -0.83900
C276        C  0.64350251  0.82886085  0.10667428     0.96600
O277        O  0.61339607  0.82073073  0.11463955    -0.83900
O278        O  0.55390943  0.82663981  0.14635900    -0.86500
C279        C  0.54645168  0.85802962  0.14188006     1.01100
O280        O  0.56515880  0.88142372  0.15288510    -0.79400
O281        O  0.61917499  0.91449043  0.18127512    -0.79500
C282        C  0.64131304  0.91979793  0.16083913     1.01100
Cr283      Cr  0.66338678  0.84983251  0.16871432     1.93700
Cr284      Cr  0.59985262  0.80479983  0.15500225     1.93200
Cr285      Cr  0.59144600  0.87186646  0.19019728     1.39100
O286        O  0.61843877  0.84215688  0.17141266    -1.24600
O287        O  0.89453675  0.66813862  0.15162642    -0.86800
O288        O  0.83147496  0.67703690  0.12840805    -0.83900
C289        C  0.83040603  0.65310307  0.10890966     0.96600
O290        O  0.82369005  0.62262420  0.11675989    -0.83900
O291        O  0.83109958  0.56403822  0.14998836    -0.86600
C292        C  0.86277191  0.55701451  0.14660375     1.01100
O293        O  0.88543561  0.57581421  0.15886752    -0.79300
O294        O  0.91537050  0.63345762  0.18592241    -0.79500
C295        C  0.91980509  0.65343030  0.16365914     1.01100
O296        O  0.87001593  0.68079811  0.21254330    -0.86800
O297        O  0.80455445  0.68462127  0.18955214    -0.83900
C298        C  0.77664149  0.67614315  0.17712716     0.96600
O299        O  0.77562749  0.65007899  0.15996231    -0.83900
O300        O  0.78913081  0.59302016  0.19689893    -0.86500
C301        C  0.80652171  0.57164327  0.21205547     1.01100
O302        O  0.83886293  0.56949113  0.20883532    -0.79400
O303        O  0.86302237  0.62952485  0.23252936    -0.79500
C304        C  0.86667924  0.66159271  0.23554163     1.01100
Cr305      Cr  0.84961534  0.67425810  0.17095988     1.93700
Cr306      Cr  0.80743811  0.60915769  0.15731283     1.93200
Cr307      Cr  0.87355044  0.60412743  0.19498725     1.39100
O308        O  0.84350761  0.62925215  0.17447591    -1.24600
O309        O  0.35394994  0.87327981  0.29300667    -0.86800
O310        O  0.34818487  0.80860116  0.31716321    -0.83900
C311        C  0.35556014  0.78050345  0.32971674     0.96600
O312        O  0.38105830  0.77874019  0.34747050    -0.83900
O313        O  0.43913491  0.78958927  0.31114543    -0.86600
C314        C  0.46083855  0.80598391  0.29540634     1.01100
O315        O  0.46424603  0.83822538  0.29822132    -0.79300
O316        O  0.40506714  0.86424435  0.27326953    -0.79500
C317        C  0.37325273  0.86990216  0.27007204     1.01100
O318        O  0.36611984  0.89915609  0.35304771    -0.86800
O319        O  0.35548601  0.83677228  0.37797797    -0.83900
C320        C  0.37907749  0.83528838  0.39780285     0.96600
O321        O  0.40933603  0.82692719  0.39045361    -0.83900
O322        O  0.46863834  0.83184723  0.35765399    -0.86500
C323        C  0.47624777  0.86342795  0.36048875     1.01100
O324        O  0.45845517  0.88608632  0.34728364    -0.79400
O325        O  0.40319001  0.91731767  0.31931247    -0.79500
C326        C  0.38188197  0.92337613  0.34028286     1.01100
Cr327      Cr  0.35939728  0.85362179  0.33500174     1.93700
Cr328      Cr  0.42290465  0.80940389  0.35020984     1.93200
Cr329      Cr  0.43061836  0.87431425  0.31111418     1.39100
O330        O  0.40422653  0.84579343  0.33209054    -1.24600
O331        O  0.12370611  0.66959033  0.32744117    -0.86800
O332        O  0.16702674  0.67228413  0.37553389    -0.83900
C333        C  0.18949942  0.66249841  0.39412745     0.96600
O334        O  0.21647811  0.64703843  0.38541015    -0.83900
O335        O  0.19095457  0.58201033  0.37461803    -0.86600
C336        C  0.17243629  0.55920630  0.36243060     1.01100
O337        O  0.16397034  0.56170116  0.33501204    -0.79300
O338        O  0.11705577  0.61440049  0.33513656    -0.79500
C339        C  0.10525647  0.64461744  0.33623103     1.01100
O340        O  0.18187589  0.68028766  0.28819155    -0.86800
O341        O  0.22328299  0.69073905  0.33738333    -0.83900
C342        C  0.25139469  0.67642623  0.33036576     0.96600
O343        O  0.25372456  0.64404853  0.32918512    -0.83900
O344        O  0.23089659  0.57676349  0.32016451    -0.86500
C345        C  0.22159688  0.57410305  0.29280194     1.01100
O346        O  0.19619470  0.59082830  0.28289679    -0.79400
O347        O  0.14515679  0.63875210  0.27887490    -0.79500
C348        C  0.16319496  0.66387410  0.26994825     1.01100
Cr349      Cr  0.17481515  0.67511318  0.33204775     1.93700
Cr350      Cr  0.22044899  0.61380743  0.35074587     1.93200
Cr351      Cr  0.15755261  0.60342319  0.30953654     1.39100
O352        O  0.18455293  0.63071798  0.33075772    -1.24600
C353        C  0.30164993  0.75502372  0.30885917    -0.14800
C354        C  0.33232755  0.75059399  0.32527815     0.07300
C355        C  0.33837097  0.71876444  0.33961686    -0.14800
C356        C  0.31306403  0.69287549  0.33923749    -0.14800
C357        C  0.28135973  0.69880830  0.32488853     0.07300
C358        C  0.27635914  0.72957341  0.30894154    -0.14800
H359        H  0.29621055  0.77901406  0.29732139     0.11300
H360        H  0.36183961  0.71452502  0.35230865     0.11300
H361        H  0.31725918  0.66936133  0.35188597     0.11300
H362        H  0.25208826  0.73458348  0.29766088     0.11300
C363        C  0.68938914  0.71757935  0.16316873    -0.14800
C364        C  0.69228667  0.74803450  0.18017477     0.07300
C365        C  0.72117238  0.75224082  0.19902943    -0.14800
C366        C  0.74761608  0.72786648  0.19928703    -0.14800
C367        C  0.74590197  0.69855678  0.18073442     0.07300
C368        C  0.71593943  0.69305767  0.16346572    -0.14800
H369        H  0.66743892  0.71348251  0.14850070     0.11300
H370        H  0.72417682  0.77522874  0.21263870     0.11300
H371        H  0.77014069  0.73281025  0.21307295     0.11300
H372        H  0.71373011  0.67064332  0.14903869     0.11300
C373        C  0.50067457  0.78899355  0.22105927    -0.14800
C374        C  0.53563723  0.78835565  0.22929288     0.07300
C375        C  0.54440568  0.78384243  0.25975468    -0.14800
C376        C  0.51862687  0.78414444  0.28196645    -0.14800
C377        C  0.48391683  0.78880654  0.27386823     0.07300
C378        C  0.47495507  0.78916188  0.24321517    -0.14800
H379        H  0.49344004  0.79340592  0.19773160     0.11300
H380        H  0.57119995  0.78433732  0.26663872     0.11300
H381        H  0.52612616  0.78487947  0.30553079     0.11300
H382        H  0.44849875  0.79382224  0.23652346     0.11300
C383        C  0.71244786  0.34848526  0.33730507    -0.14800
C384        C  0.74612711  0.34023114  0.32790096     0.07300
C385        C  0.75270619  0.30714725  0.31657951    -0.14800
C386        C  0.72721677  0.28196276  0.31693927    -0.14800
C387        C  0.69436341  0.28906631  0.32864702     0.07300
C388        C  0.68659400  0.32293160  0.33768151    -0.14800
H389        H  0.70677311  0.37384082  0.34618864     0.11300
H390        H  0.77824171  0.30020597  0.30873982     0.11300
H391        H  0.73375336  0.25624739  0.30934140     0.11300
H392        H  0.66143058  0.32900535  0.34683292     0.11300
C393        C  0.78642348  0.52573508  0.28365319    -0.14800
C394        C  0.78987063  0.49159958  0.27350048     0.07300
C395        C  0.78888131  0.48490242  0.24235516    -0.14800
C396        C  0.78890165  0.51204779  0.22169163    -0.14800
C397        C  0.79012489  0.54621007  0.23187057     0.07300
C398        C  0.78701434  0.55301092  0.26287737    -0.14800
H399        H  0.78770924  0.53153713  0.30756374     0.11300
H400        H  0.79180928  0.45882191  0.23402487     0.11300
H401        H  0.79207576  0.50633985  0.19788200     0.11300
H402        H  0.78887332  0.57920716  0.27115447     0.11300
C403        C  0.24242415  0.52674836  0.22178546    -0.14800
C404        C  0.23817747  0.49281731  0.23206750     0.07300
C405        C  0.23779848  0.48624811  0.26327251    -0.14800
C406        C  0.23751275  0.51352912  0.28379702    -0.14800
C407        C  0.23657931  0.54757293  0.27323073     0.07300
C408        C  0.24097279  0.55408778  0.24227384    -0.14800
H409        H  0.24232925  0.53238291  0.19780938     0.11300
H410        H  0.23422832  0.46023847  0.27162195     0.11300
H411        H  0.23365538  0.50798589  0.30756072     0.11300
H412        H  0.24003796  0.58023334  0.23374412     0.11300
C413        C  0.30542847  0.28462976  0.18820643    -0.14800
C414        C  0.33770983  0.29134578  0.17519076     0.07300
C415        C  0.34537354  0.32499279  0.16543015    -0.14800
C416        C  0.31977719  0.35071524  0.16636242    -0.14800
C417        C  0.28653433  0.34281510  0.17711753     0.07300
C418        C  0.28022768  0.30999885  0.18918824    -0.14800
H419        H  0.29904799  0.25906111  0.19633218     0.11300
H420        H  0.37012268  0.33070596  0.15525531     0.11300
H421        H  0.32516253  0.37582329  0.15677982     0.11300
H422        H  0.25498642  0.30334577  0.19794622     0.11300
C423        C  0.52148734  0.24602274  0.22024333    -0.14800
C424        C  0.48765432  0.24477592  0.23150214     0.07300
C425        C  0.48227925  0.24719349  0.26281816    -0.14800
C426        C  0.51033680  0.24718251  0.28264031    -0.14800
C427        C  0.54400943  0.24355730  0.27144736     0.07300
C428        C  0.54951548  0.24480533  0.24008600    -0.14800
H429        H  0.52630331  0.24375446  0.19618762     0.11300
H430        H  0.45643552  0.24601909  0.27199158     0.11300
H431        H  0.50540031  0.24589779  0.30673538     0.11300
H432        H  0.57523595  0.24184619  0.23096143     0.11300
C433        C  0.68273130  0.02756259  0.35245779    -0.14800
C434        C  0.66306649  0.01536533  0.37690864     0.07300
C435        C  0.63465545  0.03484162  0.38678326    -0.14800
C436        C  0.62632923  0.06605607  0.37277037    -0.14800
C437        C  0.64674841  0.07883189  0.34910265     0.07300
C438        C  0.67493529  0.05925442  0.33896953    -0.14800
H439        H  0.70484561  0.01319397  0.34446010     0.11300
H440        H  0.61901640  0.02606087  0.40555518     0.11300
H441        H  0.60473285  0.08088130  0.38121916     0.11300
H442        H  0.69111866  0.06864899  0.32078486     0.11300
C443        C  0.68660977  0.84521457  0.03053743    -0.14800
C444        C  0.65919810  0.86018650  0.01439848     0.07300
C445        C  0.62689832  0.86311072  0.02836313    -0.14800
C446        C  0.62198516  0.85162363  0.05786417    -0.14800
C447        C  0.64946367  0.83767984  0.07453700     0.07300
C448        C  0.68192108  0.83454646  0.06064656    -0.14800
H449        H  0.71182128  0.84284690  0.02021928     0.11300
H450        H  0.60532322  0.87442987  0.01642247     0.11300
H451        H  0.59676013  0.85476844  0.06802268     0.11300
H452        H  0.70352948  0.82400398  0.07304379     0.11300
C453        C  0.70099273  0.88833043  0.30251978    -0.14800
C454        C  0.67999795  0.87464097  0.32557270     0.07300
C455        C  0.64955746  0.85731019  0.31745954    -0.14800
C456        C  0.63960900  0.85481407  0.28734469    -0.14800
C457        C  0.65989203  0.86929690  0.26432128     0.07300
C458        C  0.69111059  0.88547216  0.27206870    -0.14800
H459        H  0.72454947  0.90191774  0.30804715     0.11300
H460        H  0.63275608  0.84632515  0.33449245     0.11300
H461        H  0.61566980  0.84171091  0.28210463     0.11300
H462        H  0.70726907  0.89677957  0.25473189     0.11300
C463        C  0.54967650  0.91538755  0.39474411    -0.14800
C464        C  0.57055320  0.88899776  0.40654540     0.07300
C465        C  0.55871411  0.85483747  0.40509082    -0.14800
C466        C  0.52760581  0.84696029  0.39102053    -0.14800
C467        C  0.50739823  0.87299833  0.37794224     0.07300
C468        C  0.51832009  0.90744766  0.38055223    -0.14800
H469        H  0.55805866  0.94198934  0.39563843     0.11300
H470        H  0.57399871  0.83387420  0.41407534     0.11300
H471        H  0.51989647  0.82017998  0.38967363     0.11300
H472        H  0.50315534  0.92811262  0.37090806     0.11300
C473        C  0.01826243  0.63271014  0.37423613    -0.14800
C474        C  0.00667687  0.66696633  0.37600367     0.07300
C475        C  0.02633711  0.69304312  0.36225943    -0.14800
C476        C  0.05765050  0.68540219  0.34840632    -0.14800
C477        C  0.07016288  0.65146793  0.34788176     0.07300
C478        C  0.04979184  0.62502297  0.36031295    -0.14800
H479        H  0.00357308  0.61203979  0.38449142     0.11300
H480        H  0.01804855  0.71966881  0.36295705     0.11300
H481        H  0.07254939  0.70636975  0.33886362     0.11300
H482        H  0.05871412  0.59859668  0.36014401     0.11300
C483        C  0.83897507  0.82102599  0.41649412    -0.14800
C484        C  0.83201334  0.78914853  0.43052152     0.07300
C485        C  0.79998828  0.78446807  0.44480999    -0.14800
C486        C  0.77465897  0.80986022  0.44314673    -0.14800
C487        C  0.78085300  0.84081418  0.42765523     0.07300
C488        C  0.81362240  0.84680887  0.41526909    -0.14800
H489        H  0.86340634  0.82544320  0.40528953     0.11300
H490        H  0.79371725  0.76039188  0.45590827     0.11300
H491        H  0.74958984  0.80475559  0.45301307     0.11300
H492        H  0.81885767  0.87040414  0.40302572     0.11300
C493        C  0.87630150  0.68710287  0.03970018    -0.14800
C494        C  0.86153035  0.66717213  0.01654678     0.07300
C495        C  0.83453714  0.64447729  0.02368989    -0.14800
C496        C  0.82356971  0.64063841  0.05367748    -0.14800
C497        C  0.83855799  0.66032604  0.07687189     0.07300
C498        C  0.86454355  0.68411061  0.06949598    -0.14800
H499        H  0.89711723  0.70486391  0.03474826     0.11300
H500        H  0.82287731  0.62872801  0.50627247     0.11300
H501        H  0.80372417  0.62189591  0.05884534     0.11300
H502        H  0.87688932  0.69921501  0.08699856     0.11300
C503        C  0.84878626  0.67413665  0.31884328    -0.14800
C504        C  0.87223477  0.70029430  0.32643792     0.07300
C505        C  0.89218404  0.71544264  0.30341073    -0.14800
C506        C  0.88937921  0.70396486  0.27348771    -0.14800
C507        C  0.86742673  0.67638924  0.26631310     0.07300
C508        C  0.84678129  0.66196243  0.28916392    -0.14800
H509        H  0.83343645  0.66171683  0.33616909     0.11300
H510        H  0.91061601  0.73552157  0.30871814     0.11300
H511        H  0.90551547  0.71551218  0.25625140     0.11300
H512        H  0.82942184  0.64085760  0.28411751     0.11300
C513        C  0.86308304  0.57833800  0.37181037    -0.14800
C514        C  0.87551056  0.58154151  0.40146147     0.07300
C515        C  0.88054519  0.55151583  0.41878862    -0.14800
C516        C  0.87256722  0.51894809  0.40664677    -0.14800
C517        C  0.86043027  0.51615071  0.37683002     0.07300
C518        C  0.85598235  0.54611777  0.35960298    -0.14800
H519        H  0.85911747  0.60086774  0.35778825     0.11300
H520        H  0.89008959  0.55328400  0.44171719     0.11300
H521        H  0.87648323  0.49605309  0.42020710     0.11300
H522        H  0.84665476  0.54462837  0.33656872     0.11300
C523        C  0.02961996  0.39838104  0.11760577    -0.14800
C524        C  0.01167159  0.36870922  0.12692071     0.07300
C525        C  0.02544876  0.34839565  0.15018809    -0.14800
C526        C  0.05726537  0.35691748  0.16309168    -0.14800
C527        C  0.07535601  0.38637138  0.15348471     0.07300
C528        C  0.06096935  0.40733155  0.13098487    -0.14800
H529        H  0.01952662  0.41454021  0.09972654     0.11300
H530        H  0.01223874  0.32530876  0.15763708     0.11300
H531        H  0.06788530  0.34033057  0.18041978     0.11300
H532        H  0.07454996  0.42997631  0.12299353     0.11300
C533        C  0.88034925  0.37148789  0.43793866    -0.14800
C534        C  0.84591795  0.37355335  0.42845740     0.07300
C535        C  0.81930791  0.37232493  0.44998585    -0.14800
C536        C  0.82725491  0.36943532  0.48073359    -0.14800
C537        C  0.86182566  0.36888981  0.49000998     0.07300
C538        C  0.88820959  0.36955703  0.46843544    -0.14800
H539        H  0.90134842  0.37257754  0.42180898     0.11300
H540        H  0.79257746  0.37380924  0.44305719     0.11300
H541        H  0.80663605  0.36886465  0.49723168     0.11300
H542        H  0.91504016  0.36876328  0.47522650     0.11300
C543        C  0.86668131  0.38405432  0.18790176    -0.14800
C544        C  0.87204044  0.34994177  0.17850631     0.07300
C545        C  0.87337531  0.32346757  0.20014900    -0.14800
C546        C  0.86930926  0.33122888  0.23084448    -0.14800
C547        C  0.86486258  0.36554744  0.23993143     0.07300
C548        C  0.86345463  0.39178459  0.21831587    -0.14800
H549        H  0.86584804  0.40503992  0.17176374     0.11300
H550        H  0.87757832  0.29700746  0.19335617     0.11300
H551        H  0.87073121  0.31078514  0.24745657     0.11300
H552        H  0.85998159  0.41840707  0.22502904     0.11300
C553        C  0.85331547  0.47457821  0.10181514    -0.14800
C554        C  0.88717968  0.46190071  0.10073200     0.07300
C555        C  0.91380512  0.48193801  0.11337540    -0.14800
C556        C  0.90637265  0.51345150  0.12764409    -0.14800
C557        C  0.87218655  0.52540488  0.12951824     0.07300
C558        C  0.84595325  0.50577991  0.11594354    -0.14800
H559        H  0.83215141  0.45998184  0.09228099     0.11300
H560        H  0.94018987  0.47285595  0.11292918     0.11300
H561        H  0.92718224  0.52798127  0.13781984     0.11300
H562        H  0.81934390  0.51415657  0.11673922     0.11300
C563        C  0.74066234  0.98336142  0.51306570    -0.14800
C564        C  0.73849933  0.99104096  0.48215643     0.07300
C565        C  0.74187416  0.02544898  0.47265923    -0.14800
C566        C  0.74263598  0.05206360  0.99404767    -0.14800
C567        C  0.74075868  0.04435032  0.02495759     0.07300
C568        C  0.74188253  0.00985329  0.03432366    -0.14800
H569        H  0.73780185  0.95703974  0.52087556     0.11300
H570        H  0.73958535  0.03198376  0.44896552     0.11300
H571        H  0.74077481  0.07853909  0.98642134     0.11300
H572        H  0.73964258  0.00345204  0.05807280     0.11300
C573        C  0.69042977  0.99542031  0.12874482    -0.14800
C574        C  0.66524421  0.02140441  0.12791279     0.07300
C575        C  0.63213758  0.01416408  0.13928256    -0.14800
C576        C  0.62441995  0.98140012  0.15096445    -0.14800
C577        C  0.64943186  0.95520699  0.15073000     0.07300
C578        C  0.68252085  0.96267351  0.13969581    -0.14800
H579        H  0.71610669  0.00002227  0.11997513     0.11300
H580        H  0.61220761  0.03366973  0.13885810     0.11300
H581        H  0.59865731  0.97620682  0.15926896     0.11300
H582        H  0.70234772  0.94304731  0.13940781     0.11300
C583        C  0.81698642  0.19353531  0.08756316    -0.14800
C584        C  0.78453286  0.20039138  0.07460553     0.07300
C585        C  0.77909706  0.23261593  0.06090128    -0.14800
C586        C  0.80435056  0.25819960  0.06218399    -0.14800
C587        C  0.83594476  0.25205208  0.07662014     0.07300
C588        C  0.84263523  0.21911492  0.08832981    -0.14800
H589        H  0.82201096  0.16896681  0.09827332     0.11300
H590        H  0.75455728  0.23882851  0.05061274     0.11300
H591        H  0.79869371  0.28336895  0.05282879     0.11300
H592        H  0.86675977  0.21387226  0.09972928     0.11300
C593        C  0.67428719  0.15700088  0.43841798    -0.14800
C594        C  0.65747925  0.18748145  0.42981276     0.07300
C595        C  0.64327179  0.20867638  0.45245179    -0.14800
C596        C  0.64550444  0.19916372  0.48304342    -0.14800
C597        C  0.66155833  0.16811266  0.49129451     0.07300
C598        C  0.67617549  0.14744025  0.46863503    -0.14800
H599        H  0.68549365  0.13998377  0.42171221     0.11300
H600        H  0.62994645  0.23222041  0.44649561     0.11300
H601        H  0.63397801  0.21552134  0.00007977     0.11300
H602        H  0.68907990  0.12352637  0.47425016     0.11300
C603        C  0.68696125  0.13038644  0.19822250    -0.14800
C604        C  0.69797952  0.15837724  0.18053900     0.07300
C605        C  0.69954368  0.19131878  0.19373496    -0.14800
C606        C  0.69003780  0.19595487  0.22414699    -0.14800
C607        C  0.67793236  0.16788023  0.24124939     0.07300
C608        C  0.67674916  0.13514672  0.22801995    -0.14800
H609        H  0.68498435  0.10476490  0.18867986     0.11300
H610        H  0.70774074  0.21334833  0.18053306     0.11300
H611        H  0.69079311  0.22152925  0.23389934     0.11300
H612        H  0.66746996  0.11313049  0.24071648     0.11300
C613        C  0.57420740  0.16550307  0.13894116    -0.14800
C614        C  0.57794127  0.15706954  0.10830943     0.07300
C615        C  0.54855005  0.15608596  0.08974446    -0.14800
C616        C  0.51598777  0.16410466  0.10165691    -0.14800
C617        C  0.51238562  0.17209663  0.13244969     0.07300
C618        C  0.54176707  0.17249073  0.15095804    -0.14800
H619        H  0.59644899  0.16636527  0.15374111     0.11300
H620        H  0.55089470  0.14983139  0.06598535     0.11300
H621        H  0.49365254  0.16365173  0.08699529     0.11300
H622        H  0.53972901  0.17884340  0.17471308     0.11300
C623        C  0.34082790  0.03552767  0.14575845    -0.14800
C624        C  0.36553800  0.01814420  0.12830380     0.07300
C625        C  0.39917044  0.03155598  0.12656432    -0.14800
C626        C  0.40745011  0.06257664  0.14096662    -0.14800
C627        C  0.38222160  0.08065262  0.15730948     0.07300
C628        C  0.34907005  0.06641396  0.16008163    -0.14800
H629        H  0.31479509  0.02567278  0.14779979     0.11300
H630        H  0.41874559  0.01871007  0.11324938     0.11300
H631        H  0.43315822  0.07307426  0.13832334     0.11300
H632        H  0.32914494  0.07962768  0.17271206     0.11300
C633        C  0.38540514  0.84160765  0.48333185    -0.14800
C634        C  0.36436901  0.87027902  0.48932658     0.07300
C635        C  0.34635704  0.88557758  0.46525046    -0.14800
C636        C  0.34960757  0.87277123  0.43578800    -0.14800
C637        C  0.37170481  0.84499744  0.42958181     0.07300
C638        C  0.38952717  0.82948995  0.45366762    -0.14800
H639        H  0.39963963  0.82936082  0.00142331     0.11300
H640        H  0.32984686  0.90760529  0.46920827     0.11300
H641        H  0.33602745  0.88560422  0.41761155     0.11300
H642        H  0.40696890  0.80825696  0.44946817     0.11300
C643        C  0.35751197  0.85641978  0.18628601    -0.14800
C644        C  0.33411233  0.88297444  0.17953271     0.07300
C645        C  0.32250464  0.90424648  0.20318722    -0.14800
C646        C  0.33423977  0.89919781  0.23284654    -0.14800
C647        C  0.35870930  0.87355979  0.23926415     0.07300
C648        C  0.37005346  0.85209358  0.21573700    -0.14800
H649        H  0.36731987  0.83993804  0.16851890     0.11300
H650        H  0.30472699  0.92511339  0.19866133     0.11300
H651        H  0.32521516  0.91618120  0.25057174     0.11300
H652        H  0.38881066  0.83205635  0.22013152     0.11300
C653        C  0.45700368  0.84973554  0.10956875    -0.14800
C654        C  0.44954798  0.88375465  0.10118356     0.07300
C655        C  0.47495400  0.90923883  0.10439033    -0.14800
C656        C  0.50699096  0.90092046  0.11705566    -0.14800
C657        C  0.51416391  0.86688013  0.12602417     0.07300
C658        C  0.48906153  0.84130433  0.12155542    -0.14800
H659        H  0.43775649  0.82966909  0.10720989     0.11300
H660        H  0.46952185  0.93570638  0.09828825     0.11300
H661        H  0.52587136  0.92114812  0.12031553     0.11300
H662        H  0.49369324  0.81490066  0.12833857     0.11300
C663        C  0.02277708  0.74819589  0.46992634    -0.14800
C664        C  0.98855990  0.74732461  0.48014527     0.07300
C665        C  0.98182618  0.74965209  0.01120661    -0.14800
C666        C  0.00911042  0.74889939  0.03191757    -0.14800
C667        C  0.04316895  0.74496740  0.02161795     0.07300
C668        C  0.04994195  0.74681833  0.49052730    -0.14800
H669        H  0.02840751  0.74564415  0.44604331     0.11300
H670        H  0.95558868  0.74800316  0.01949979     0.11300
H671        H  0.00327318  0.74699584  0.05580081     0.11300
H672        H  0.07598567  0.74364209  0.48211378     0.11300
C673        C  0.01666898  0.66540940  0.15581341    -0.14800
C674        C  0.01910067  0.67422801  0.12510327     0.07300
C675        C  0.98905854  0.67602509  0.10760306    -0.14800
C676        C  0.95707034  0.66932624  0.12045204    -0.14800
C677        C  0.95435663  0.65998522  0.15099947     0.07300
C678        C  0.98441596  0.65780386  0.16862979    -0.14800
H679        H  0.03964741  0.66382732  0.16962544     0.11300
H680        H  0.99028176  0.68303416  0.08391938     0.11300
H681        H  0.93437380  0.67107696  0.10629269     0.11300
H682        H  0.98288044  0.65080544  0.19227636     0.11300
C683        C  0.18542761  0.82215784  0.08925490    -0.14800
C684        C  0.19288044  0.78987055  0.07649854     0.07300
C685        C  0.22441280  0.78498367  0.06171355    -0.14800
C686        C  0.24890473  0.81115802  0.06094162    -0.14800
C687        C  0.24282002  0.84274010  0.07555319     0.07300
C688        C  0.21043018  0.84839674  0.08904458    -0.14800
H689        H  0.16126870  0.82632399  0.10096718     0.11300
H690        H  0.23062665  0.76031951  0.05162965     0.11300
H691        H  0.27343050  0.80583621  0.05022259     0.11300
H692        H  0.20498161  0.87245862  0.10044546     0.11300
C693        C  0.20275927  0.67471290  0.47799849    -0.14800
C694        C  0.16848286  0.67294094  0.48800603     0.07300
C695        C  0.14165270  0.66984326  0.46703986    -0.14800
C696        C  0.14883848  0.66775440  0.43645318    -0.14800
C697        C  0.18305590  0.66801152  0.42630294     0.07300
C698        C  0.21008750  0.67168090  0.44715036    -0.14800
H699        H  0.22370574  0.67714692  0.99401640     0.11300
H700        H  0.11500755  0.66878989  0.47437652     0.11300
H701        H  0.12759607  0.66469958  0.42078765     0.11300
H702        H  0.23665396  0.67199284  0.43960754     0.11300
C703        C  0.15468547  0.65490678  0.18624686    -0.14800
C704        C  0.15839094  0.68904336  0.17651349     0.07300
C705        C  0.16396697  0.71537556  0.19765501    -0.14800
C706        C  0.16633280  0.70737277  0.22837991    -0.14800
C707        C  0.16196246  0.67319981  0.23801307     0.07300
C708        C  0.15608603  0.64710714  0.21676400    -0.14800
H709        H  0.14992074  0.63430886  0.17025336     0.11300
H710        H  0.16675270  0.74188044  0.19038264     0.11300
H711        H  0.17081778  0.72778420  0.24457970     0.11300
H712        H  0.15287492  0.62053431  0.22375524     0.11300
C713        C  0.17704517  0.56024328  0.08793030    -0.14800
C714        C  0.14716176  0.57805633  0.09694627     0.07300
C715        C  0.12568162  0.56314796  0.11887745    -0.14800
C716        C  0.13474802  0.53191397  0.13254909    -0.14800
C717        C  0.16508890  0.51450307  0.12411956     0.07300
C718        C  0.18569977  0.52856267  0.10111249    -0.14800
H719        H  0.19406324  0.57114049  0.07102144     0.11300
H720        H  0.10266371  0.57638539  0.12641822     0.11300
H721        H  0.11825758  0.52161500  0.15013543     0.11300
H722        H  0.20924220  0.51580721  0.09421795     0.11300
C723        C  0.39345568  0.01661337  0.36339423    -0.14800
C724        C  0.36033699  0.02440343  0.37437300     0.07300
C725        C  0.33417809  0.99947582  0.37202809    -0.14800
C726        C  0.34123288  0.96701885  0.36021931    -0.14800
C727        C  0.37441420  0.95889767  0.34988897     0.07300
C728        C  0.40034679  0.98414367  0.35088445    -0.14800
H729        H  0.41406816  0.03536082  0.36493179     0.11300
H730        H  0.30842417  0.00456540  0.38036898     0.11300
H731        H  0.32077812  0.94800370  0.35955748     0.11300
H732        H  0.42618918  0.97827994  0.34318277     0.11300
C733        C  0.28060136  0.05692566  0.00904808    -0.14800
C734        C  0.28523015  0.04778004  0.47870066     0.07300
C735        C  0.28476482  0.01284742  0.47053466    -0.14800
C736        C  0.28348887  0.98727814  0.49273456    -0.14800
C737        C  0.28288751  0.99640777  0.02334330     0.07300
C738        C  0.27951705  0.03128889  0.03130911    -0.14800
H739        H  0.28190794  0.08371149  0.01582620     0.11300
H740        H  0.28918855  0.00537639  0.44725838     0.11300
H741        H  0.28725704  0.96065675  0.48618283     0.11300
H742        H  0.28018801  0.03885551  0.05486334     0.11300
C743        C  0.38101346  0.21182152  0.05140196    -0.14800
C744        C  0.37129470  0.18853372  0.07430210     0.07300
C745        C  0.35806624  0.15623227  0.06595521    -0.14800
C746        C  0.35576261  0.14685768  0.03570539    -0.14800
C747        C  0.36641408  0.16951378  0.01271781     0.07300
C748        C  0.37837064  0.20245828  0.02079189    -0.14800
H749        H  0.39116300  0.23696978  0.05714894     0.11300
H750        H  0.35025393  0.13761375  0.08287519     0.11300
H751        H  0.34585773  0.12147024  0.03037439     0.11300
H752        H  0.38646077  0.22056078  0.00356410     0.11300
C753        C  0.33281322  0.19463313  0.31110881    -0.14800
C754        C  0.32850145  0.16112414  0.32265355     0.07300
C755        C  0.33300661  0.13287723  0.30312913    -0.14800
C756        C  0.34376336  0.13782829  0.27342093    -0.14800
C757        C  0.34935682  0.17111075  0.26226703     0.07300
C758        C  0.34278034  0.19959949  0.28091811    -0.14800
H759        H  0.32951113  0.21684997  0.32560149     0.11300
H760        H  0.32996444  0.10670525  0.31120869     0.11300
H761        H  0.34858084  0.11554818  0.25929145     0.11300
H762        H  0.34715222  0.22549679  0.27263325     0.11300
C763        C  0.45508352  0.16910870  0.36592597    -0.14800
C764        C  0.45123772  0.15808664  0.39595482     0.07300
C765        C  0.48079734  0.15443588  0.41409221    -0.14800
C766        C  0.51358124  0.16227930  0.40240756    -0.14800
C767        C  0.51718690  0.17278296  0.37218375     0.07300
C768        C  0.48767768  0.17591442  0.35409813    -0.14800
H769        H  0.43281871  0.17208446  0.35141054     0.11300
H770        H  0.47847023  0.14613160  0.43738002     0.11300
H771        H  0.53605845  0.15959898  0.41669759     0.11300
H772        H  0.48979470  0.18414770  0.33075907     0.11300
C773        C  0.97433078  0.35861220  0.34016398    -0.14800
C774        C  0.95774754  0.38984281  0.34716968     0.07300
C775        C  0.97436919  0.41340473  0.36631061    -0.14800
C776        C  0.00590339  0.40491615  0.37969859    -0.14800
C777        C  0.02175506  0.37310774  0.37360352     0.07300
C778        C  0.00624077  0.35049266  0.35300076    -0.14800
H779        H  0.96219196  0.34003164  0.32533293     0.11300
H780        H  0.96221160  0.43762789  0.37209894     0.11300
H781        H  0.01756608  0.42287988  0.39539073     0.11300
H782        H  0.01790846  0.32579455  0.34803700     0.11300
C783        C  0.97983480  0.29513613  0.48985074    -0.14800
C784        C  0.98645672  0.29505681  0.02103862     0.07300
C785        C  0.02043595  0.29083103  0.03123835    -0.14800
C786        C  0.04776773  0.29244409  0.01069158    -0.14800
C787        C  0.04119195  0.29693884  0.47976300     0.07300
C788        C  0.00712096  0.29557202  0.46926313    -0.14800
H789        H  0.95378936  0.29855410  0.48155246     0.11300
H790        H  0.02613415  0.29101857  0.05519842     0.11300
H791        H  0.07393181  0.29359172  0.01917629     0.11300
H792        H  0.00152107  0.29937149  0.44551252     0.11300
C793        C  0.18697485  0.22288955  0.41543478    -0.14800
C794        C  0.19365062  0.25522543  0.42829888     0.07300
C795        C  0.22497997  0.26075088  0.44333945    -0.14800
C796        C  0.25010424  0.23509977  0.44407565    -0.14800
C797        C  0.24469307  0.20353868  0.42924727     0.07300
C798        C  0.21244933  0.19727747  0.41569335    -0.14800
H799        H  0.16306285  0.21825208  0.40348669     0.11300
H800        H  0.23057010  0.28552823  0.45349964     0.11300
H801        H  0.27451071  0.24077188  0.45485401     0.11300
H802        H  0.20749053  0.17322296  0.40410128     0.11300
C803        C  0.20350406  0.37412448  0.02338119    -0.14800
C804        C  0.16870541  0.37226484  0.01484847     0.07300
C805        C  0.14292831  0.37194004  0.03694388    -0.14800
C806        C  0.15161211  0.37359680  0.06725949    -0.14800
C807        C  0.18625140  0.37639345  0.07606422     0.07300
C808        C  0.21225929  0.37674535  0.05397747    -0.14800
H809        H  0.22365295  0.37450234  0.50643437     0.11300
H810        H  0.11595925  0.37029033  0.03071830     0.11300
H811        H  0.13102738  0.37366099  0.08382721     0.11300
H812        H  0.23911265  0.37900162  0.06036369     0.11300
C813        C  0.15896778  0.38739159  0.31605362    -0.14800
C814        C  0.16029598  0.35329611  0.32639739     0.07300
C815        C  0.16521925  0.32635481  0.30564861    -0.14800
C816        C  0.16888948  0.33366367  0.27480785    -0.14800
C817        C  0.16650333  0.36781523  0.26459404     0.07300
C818        C  0.16167951  0.39453113  0.28544164    -0.14800
H819        H  0.15487798  0.40855391  0.33160706     0.11300
H820        H  0.16630221  0.29986644  0.31328735     0.11300
H821        H  0.17253188  0.31275523  0.25893900     0.11300
H822        H  0.16001059  0.42108468  0.27801024     0.11300
C823        C  0.12359466  0.47862841  0.38362334    -0.14800
C824        C  0.14423770  0.46523907  0.40678138     0.07300
C825        C  0.17276144  0.48430416  0.41699136    -0.14800
C826        C  0.18107080  0.51589925  0.40364006    -0.14800
C827        C  0.16147156  0.52838904  0.37937788     0.07300
C828        C  0.13235836  0.50974708  0.36981470    -0.14800
H829        H  0.10166320  0.46423530  0.37522193     0.11300
H830        H  0.18901231  0.47440859  0.43488533     0.11300
H831        H  0.20366371  0.52974481  0.41134538     0.11300
H832        H  0.11672727  0.51892384  0.35121097     0.11300
O833        O  0.17482973  0.35353499  0.96434686    -0.86800
O834        O  0.18468283  0.31289316  0.91463372    -0.83900
C835        C  0.17087683  0.28480364  0.92250790     0.96600
O836        O  0.13850760  0.28207585  0.92411582    -0.83900
O837        O  0.07060879  0.30342499  0.93294541    -0.86600
C838        C  0.06751839  0.31261893  0.96027790     1.01100
O839        O  0.08372891  0.33829343  0.97031090    -0.79300
O840        O  0.13219270  0.38859453  0.97520747    -0.79500
C841        C  0.15830927  0.37133310  0.98318059     1.01100
O842        O  0.16312106  0.41198764  0.92655133    -0.86800
O843        O  0.16460714  0.36950133  0.87728531    -0.83900
C844        C  0.15518324  0.34679972  0.85871485     0.96600
O845        O  0.14069401  0.31933554  0.86764738    -0.83900
O846        O  0.07520634  0.34356252  0.87875922    -0.86500
C847        C  0.05258046  0.36247756  0.89075112     1.01100
O848        O  0.05516293  0.37150969  0.91806420    -0.79400
O849        O  0.10787263  0.41797353  0.91896571    -0.79500
C850        C  0.13794081  0.43016368  0.91813469     1.01100
Cr851      Cr  0.16860495  0.36107979  0.92074774     1.93700
Cr852      Cr  0.10762129  0.31467059  0.90249927     1.93200
Cr853      Cr  0.09677589  0.37719242  0.94407612     1.39100
O854        O  0.12421720  0.35068875  0.92257173    -1.24600
O855        O  0.39115402  0.16718677  0.89655889    -0.86800
O856        O  0.32713179  0.17839613  0.87466868    -0.83900
C857        C  0.32284673  0.15462513  0.85526789     0.83800
O858        O  0.31508703  0.12452256  0.86348551    -0.83900
O859        O  0.32178924  0.06515770  0.89528265    -0.86600
C860        C  0.35290000  0.05718949  0.89003667     1.01100
O861        O  0.37699396  0.07569830  0.90027538    -0.79300
O862        O  0.41130410  0.12996149  0.92894583    -0.79500
C863        C  0.41620649  0.15128952  0.90781413     1.01100
O864        O  0.36757461  0.17837635  0.95881173    -0.86800
O865        O  0.30265033  0.18641888  0.93660163    -0.83900
C866        C  0.27389181  0.17936572  0.92510858     0.96600
O867        O  0.27074074  0.15320500  0.90835007    -0.83900
O868        O  0.28427292  0.09545173  0.94458191    -0.86500
C869        C  0.30138887  0.07228636  0.95782652     1.01100
O870        O  0.33312869  0.06818544  0.95218171    -0.79400
O871        O  0.36127029  0.12575589  0.97637858    -0.79500
C872        C  0.36502046  0.15755419  0.98091387     1.01100
Cr873      Cr  0.34656376  0.17421029  0.91695968     1.93700
Cr874      Cr  0.30064445  0.11118506  0.90425459     1.93200
Cr875      Cr  0.36858441  0.10211122  0.93794545     1.39100
O876        O  0.33857650  0.12942264  0.91979683    -1.24600
O877        O  0.17593048  0.69112694  0.53871486    -0.86800
O878        O  0.18494375  0.73162238  0.58885455    -0.83900
C879        C  0.17062412  0.75968823  0.58165891     0.96600
O880        O  0.13825468  0.76174968  0.57978540    -0.83900
O881        O  0.07124621  0.73886026  0.56927502    -0.86600
C882        C  0.06910467  0.72966059  0.54181943     1.01100
O883        O  0.08619148  0.70434721  0.53210328    -0.79300
O884        O  0.13495107  0.65398684  0.52864641    -0.79500
C885        C  0.15966290  0.67283851  0.52005198     1.01100
O886        O  0.16504861  0.63186223  0.57680106    -0.86800
O887        O  0.16563530  0.67432200  0.62571964    -0.83900
C888        C  0.15490814  0.69634265  0.64433965     0.96600
O889        O  0.14021713  0.72369016  0.63557079    -0.83900
O890        O  0.07559936  0.69806746  0.62368121    -0.86500
C891        C  0.05233626  0.68129255  0.61037248     1.01100
O892        O  0.05617096  0.67219300  0.58323599    -0.79400
O893        O  0.10982712  0.62507505  0.58457659    -0.79500
C894        C  0.14014468  0.61325300  0.58548687     1.01100
Cr895      Cr  0.16984147  0.68307928  0.58240735     1.93700
Cr896      Cr  0.10773469  0.72807232  0.60050348     1.93200
Cr897      Cr  0.09871895  0.66565389  0.55875163     1.39100
O898        O  0.12536946  0.69263896  0.58043526    -1.24600
O899        O  0.38968682  0.87713935  0.60387102    -0.86800
O900        O  0.32664218  0.86720041  0.62767880    -0.83900
C901        C  0.32517076  0.89070090  0.64758581     0.96600
O902        O  0.31739018  0.92107874  0.64017774    -0.83900
O903        O  0.32372602  0.98030404  0.60764345    -0.86600
C904        C  0.35544335  0.98734284  0.61079621     1.01100
O905        O  0.37804388  0.96920342  0.59789820    -0.79300
O906        O  0.40912219  0.91373364  0.57031621    -0.79500
C907        C  0.41440928  0.89233519  0.59136326     1.01100
O908        O  0.36489035  0.86545414  0.54320860    -0.86800
O909        O  0.29994539  0.86045897  0.56640398    -0.83900
C910        C  0.27184553  0.86728635  0.57914729     0.96600
O911        O  0.26967116  0.89311892  0.59652915    -0.83900
O912        O  0.28204940  0.95136638  0.56031954    -0.86500
C913        C  0.29912254  0.97298253  0.54504194     1.01100
O914        O  0.33133058  0.97599287  0.54845321    -0.79400
O915        O  0.35677581  0.91670612  0.52359832    -0.79500
C916        C  0.36169049  0.88481648  0.52028313     1.01100
Cr917      Cr  0.34456037  0.87100698  0.58500436     1.93700
Cr918      Cr  0.30076612  0.93484798  0.59970206     1.93200
Cr919      Cr  0.36664302  0.94182577  0.56160414     1.39100
O920        O  0.33733518  0.91584061  0.58210463    -1.24600
O921        O  0.63804461  0.16552724  0.60750830    -0.86800
O922        O  0.70238969  0.17621296  0.62877555    -0.83900
C923        C  0.70516608  0.15224089  0.64815835     0.96600
O924        O  0.71246958  0.12201540  0.64002338    -0.83900
O925        O  0.70487808  0.06244951  0.60849517    -0.86600
C926        C  0.67354784  0.05473782  0.61326397     1.01100
O927        O  0.64991950  0.07393069  0.60321236    -0.79300
O928        O  0.61704190  0.12916220  0.57475934    -0.79500
C929        C  0.61268795  0.15013774  0.59620331     1.01100
O930        O  0.66077683  0.17658754  0.54512448    -0.86800
O931        O  0.72645561  0.18354543  0.56673069    -0.83900
C932        C  0.75509156  0.17620090  0.57836536     0.96600
O933        O  0.75781273  0.14988300  0.59509086    -0.83900
O934        O  0.74325009  0.09187705  0.55921023    -0.86500
C935        C  0.72543419  0.06935035  0.54576257     1.01100
O936        O  0.69360523  0.06600403  0.55134998    -0.79400
O937        O  0.66679435  0.12409756  0.52727502    -0.79500
C938        C  0.66303374  0.15591299  0.52293658     1.01100
Cr939      Cr  0.68243518  0.17208979  0.58669140     1.93700
Cr940      Cr  0.72705166  0.10821643  0.59942413     1.93200
Cr941      Cr  0.65898268  0.10046396  0.56564538     1.39100
O942        O  0.68958191  0.12714737  0.58377936    -1.24600
O943        O  0.85523206  0.35061029  0.54074411    -0.86800
O944        O  0.84577585  0.30965990  0.59040336    -0.83900
C945        C  0.85920973  0.28143822  0.58254378     0.96600
O946        O  0.89154910  0.27854034  0.58064889    -0.83900
O947        O  0.95895774  0.30004207  0.56904286    -0.86600
C948        C  0.96089698  0.30993393  0.54176305     1.01100
O949        O  0.94434297  0.33586111  0.53274456    -0.79300
O950        O  0.89672692  0.38696283  0.53016054    -0.79500
C951        C  0.87142207  0.36873217  0.52190512     1.01100
O952        O  0.86823708  0.40889740  0.57956890    -0.86800
O953        O  0.86685643  0.36558490  0.62768809    -0.83900
C954        C  0.87724195  0.34327498  0.64619219     0.96600
O955        O  0.89233028  0.31614743  0.63721442    -0.83900
O956        O  0.95750246  0.33971127  0.62378126    -0.86500
C957        C  0.97989083  0.35827770  0.61098071     1.01100
O958        O  0.97600525  0.36752961  0.58387900    -0.79400
O959        O  0.92365829  0.41497857  0.58600042    -0.79500
C960        C  0.89357144  0.42699770  0.58815040     1.01100
Cr961      Cr  0.86219436  0.35781399  0.58441322     1.93700
Cr962      Cr  0.92364751  0.31119793  0.60112076     1.93200
Cr963      Cr  0.93320228  0.37440016  0.55984742     1.39100
O964        O  0.90647185  0.34751091  0.58182790    -1.24600
O965        O  0.85531930  0.66605452  0.96281204    -0.86800
O966        O  0.84814871  0.73109681  0.93937992    -0.83900
C967        C  0.85586895  0.75946149  0.92732760     0.96600
O968        O  0.88235748  0.76180766  0.91074998    -0.83900
O969        O  0.94053657  0.74845340  0.94640573    -0.86600
C970        C  0.96302534  0.73118548  0.96035212     1.01100
O971        O  0.96591885  0.69911708  0.95610693    -0.79300
O972        O  0.90711296  0.67398280  0.98166264    -0.79500
C973        C  0.87524046  0.66937987  0.98540466     1.01100
O974        O  0.86710799  0.64155555  0.90139731    -0.86800
O975        O  0.85587467  0.70450656  0.87832826    -0.83900
C976        C  0.87940888  0.70781517  0.85858530     0.96600
O977        O  0.90964879  0.71580949  0.86618736    -0.83900
O978        O  0.96890739  0.70790479  0.89789512    -0.86500
C979        C  0.97571185  0.67630348  0.89373617     1.01100
O980        O  0.95747225  0.65332103  0.90615744    -0.79400
O981        O  0.90236227  0.62161176  0.93544779    -0.79500
C982        C  0.88215067  0.61652013  0.91351034     1.01100
Cr983      Cr  0.85997404  0.68641578  0.92085724     1.93700
Cr984      Cr  0.92373611  0.73088895  0.90679298     1.93200
Cr985      Cr  0.93109718  0.66418362  0.94333357     1.39100
O986        O  0.90476145  0.69397836  0.92373047    -1.24600
O987        O  0.62426789  0.87112331  0.92669484    -0.86800
O988        O  0.66634418  0.86933765  0.87737978    -0.83900
C989        C  0.68763647  0.88028525  0.85805504     0.96600
O990        O  0.71460943  0.89634496  0.86632836    -0.83900
O991        O  0.69120313  0.96097375  0.88020063    -0.86600
C992        C  0.67298512  0.98346845  0.89309271     1.01100
O993        O  0.66393860  0.97958221  0.92031835    -0.79300
O994        O  0.61719898  0.92634163  0.91989260    -0.79500
C995        C  0.60558705  0.89606050  0.91833487     1.01100
O996        O  0.68364544  0.85980947  0.96491742    -0.86800
O997        O  0.72324604  0.84997870  0.91408225    -0.83900
C998        C  0.75145804  0.86381376  0.92131443     0.96600
O999        O  0.75418543  0.89618980  0.92244542    -0.83900
O1000       O  0.73222648  0.96341586  0.93419465    -0.86500
C1001       C  0.72287979  0.96561364  0.96163112     1.01100
O1002       O  0.69727236  0.94889142  0.97128800    -0.79400
O1003       O  0.64636275  0.90025721  0.97565976    -0.79500
C1004       C  0.66383264  0.87422484  0.98361327     1.01100
Cr1005     Cr  0.67526168  0.86584670  0.92092682     1.93700
Cr1006     Cr  0.72051302  0.92771072  0.90246300     1.93200
Cr1007     Cr  0.65820144  0.93678665  0.94509665     1.39100
O1008       O  0.68491286  0.91026339  0.92272146    -1.24600
O1009       O  0.35217119  0.19512422  0.71291386    -0.86800
O1010       O  0.34604363  0.23380042  0.66116777    -0.83900
C1011       C  0.36036532  0.26167806  0.66880559     0.96600
O1012       O  0.39278877  0.26364837  0.67052615    -0.83900
O1013       O  0.45889126  0.23961074  0.68405058    -0.86600
C1014       C  0.46000743  0.23146809  0.71186752     1.01100
O1015       O  0.44090600  0.20790475  0.72214563    -0.79300
O1016       O  0.39128820  0.15724637  0.72573268    -0.79500
C1017       C  0.36516317  0.17525721  0.73230536     1.01100
O1018       O  0.36400494  0.13462919  0.67631145    -0.86800
O1019       O  0.36497794  0.17527280  0.62613254    -0.83900
C1020       C  0.37652476  0.19621667  0.60681529     0.96600
O1021       O  0.39282082  0.22296508  0.61517944    -0.83900
O1022       O  0.45611067  0.19659611  0.63106158    -0.86500
C1023       C  0.47861517  0.18044019  0.64591386     1.01100
O1024       O  0.47343637  0.17308825  0.67334564    -0.79400
O1025       O  0.41952844  0.12673609  0.67161819    -0.79500
C1026       C  0.38912634  0.11556615  0.66908935     1.01100
Cr1027     Cr  0.35994735  0.18550652  0.66937875     1.93700
Cr1028     Cr  0.42355733  0.22838727  0.65179701     1.93200
Cr1029     Cr  0.42942189  0.16805979  0.69648443     1.39100
O1030       O  0.40437043  0.19425497  0.67252926    -1.24600
O1031       O  0.12866488  0.36970761  0.67513062    -0.86800
O1032       O  0.17227755  0.36912538  0.62701754    -0.83900
C1033       C  0.19386636  0.38059801  0.60827171     0.96600
O1034       O  0.22073850  0.39649214  0.61689214    -0.83900
O1035       O  0.19581521  0.46132658  0.62892717    -0.86600
C1036       C  0.17600369  0.48322193  0.64084326     1.01100
O1037       O  0.16592296  0.47934268  0.66772542    -0.79300
O1038       O  0.12132697  0.42444086  0.66595905    -0.79500
C1039       C  0.11003046  0.39399385  0.66543636     1.01100
O1040       O  0.18712578  0.36063750  0.71438313    -0.86800
O1041       O  0.22856643  0.35121286  0.66450281    -0.83900
C1042       C  0.25658021  0.36550012  0.67175963     0.96600
O1043       O  0.25859241  0.39789064  0.67342352    -0.83900
O1044       O  0.23466501  0.46457346  0.68430974    -0.86500
C1045       C  0.22384266  0.46704696  0.71130775     1.01100
O1046       O  0.19770996  0.45057245  0.72008813    -0.79400
O1047       O  0.14880688  0.40084936  0.72310887    -0.79500
C1048       C  0.16773071  0.37657563  0.73243781     1.01100
Cr1049     Cr  0.18003190  0.36587513  0.67039765     1.93700
Cr1050     Cr  0.22486216  0.42857632  0.65249511     1.93200
Cr1051     Cr  0.16048238  0.43685188  0.69262088     1.39100
O1052       O  0.18887613  0.41058830  0.67187936    -1.24600
O1053       O  0.90369939  0.37094533  0.82858024    -0.86800
O1054       O  0.86105045  0.36886224  0.87739774    -0.83900
C1055       C  0.83891411  0.37885385  0.89624923     0.96600
O1056       O  0.81173814  0.39415458  0.88773872    -0.83900
O1057       O  0.83680031  0.45927227  0.87572242    -0.86600
C1058       C  0.85331391  0.48271824  0.86229120     1.01100
O1059       O  0.86192257  0.47905132  0.83500121    -0.79300
O1060       O  0.90986915  0.42632555  0.83582741    -0.79500
C1061       C  0.92212800  0.39622337  0.83664905     1.01100
O1062       O  0.84512157  0.35908818  0.79028165    -0.86800
O1063       O  0.80426139  0.34948864  0.84026194    -0.83900
C1064       C  0.77587311  0.36332967  0.83327701     0.96600
O1065       O  0.77323346  0.39572467  0.83191991    -0.83900
O1066       O  0.79558747  0.46328497  0.82132800    -0.86500
C1067       C  0.80472778  0.46547319  0.79381422     1.01100
O1068       O  0.82991403  0.44828827  0.78405173    -0.79400
O1069       O  0.88133348  0.40089631  0.78008237    -0.79500
C1070       C  0.86359684  0.37532494  0.77170922     1.01100
Cr1071     Cr  0.85261310  0.36523552  0.83403423     1.93700
Cr1072     Cr  0.80688103  0.42671428  0.85257496     1.93200
Cr1073     Cr  0.86894970  0.43665434  0.81041702     1.39100
O1074       O  0.84248423  0.40955543  0.83228216    -1.24600
O1075       O  0.67759055  0.19205309  0.79086824    -0.86800
O1076       O  0.68491124  0.23149634  0.84222349    -0.83900
C1077       C  0.67110566  0.25960088  0.83460399     0.96600
O1078       O  0.63871424  0.26199034  0.83271882    -0.83900
O1079       O  0.57233134  0.23860016  0.81909326    -0.86600
C1080       C  0.57087033  0.22951378  0.79151636     1.01100
O1081       O  0.58892330  0.20483854  0.78187011    -0.79300
O1082       O  0.63802445  0.15402266  0.77952135    -0.79500
C1083       C  0.66375901  0.17213018  0.77192130     1.01100
O1084       O  0.66563655  0.13210116  0.82870747    -0.86800
O1085       O  0.66506025  0.17407533  0.87815986    -0.83900
C1086       C  0.65317859  0.19514444  0.89720940     0.96600
O1087       O  0.63738980  0.22203499  0.88853554    -0.83900
O1088       O  0.57376550  0.19680849  0.87309423    -0.86500
C1089       C  0.55113638  0.18033212  0.85867213     1.01100
O1090       O  0.55631265  0.17195787  0.83150850    -0.79400
O1091       O  0.61011067  0.12531211  0.83469698    -0.79500
C1092       C  0.64037098  0.11364391  0.83682475     1.01100
Cr1093     Cr  0.67015428  0.18329762  0.83472386     1.93700
Cr1094     Cr  0.60712185  0.22745938  0.85176580     1.93200
Cr1095     Cr  0.60026514  0.16584412  0.80861415     1.39100
O1096       O  0.62578059  0.19257164  0.83169054    -1.24600
O1097       O  0.66784457  0.87038556  0.71056148    -0.86800
O1098       O  0.67466749  0.80557772  0.68797563    -0.83900
C1099       C  0.66787134  0.77711123  0.67591225     0.96600
O1100       O  0.64196074  0.77439571  0.65868339    -0.83900
O1101       O  0.58341241  0.78725652  0.69488151    -0.86600
C1102       C  0.56060932  0.80443352  0.70865393     1.01100
O1103       O  0.55728595  0.83642902  0.70393771    -0.79300
O1104       O  0.61541304  0.86370582  0.72854154    -0.79500
C1105       C  0.64727904  0.86772225  0.73278915     1.01100
O1106       O  0.65733801  0.89499777  0.64924785    -0.86800
O1107       O  0.66751022  0.83112799  0.62610069    -0.83900
C1108       C  0.64350221  0.82886046  0.60667429     0.96600
O1109       O  0.61339575  0.82073042  0.61463958    -0.83900
O1110       O  0.55390924  0.82663955  0.64635921    -0.86500
C1111       C  0.54645157  0.85802935  0.64188016     1.01100
O1112       O  0.56515878  0.88142346  0.65288506    -0.79400
O1113       O  0.61917508  0.91449012  0.68127496    -0.79500
C1114       C  0.64131311  0.91979743  0.66083892     1.01100
Cr1115     Cr  0.66338669  0.84983198  0.66871432     1.93700
Cr1116     Cr  0.59985242  0.80479952  0.65500234     1.93200
Cr1117     Cr  0.59144599  0.87186629  0.69019723     1.39100
O1118       O  0.61843867  0.84215655  0.67141269    -1.24600
O1119       O  0.89453697  0.66813870  0.65162665    -0.86800
O1120       O  0.83147519  0.67703683  0.62840805    -0.83900
C1121       C  0.83040614  0.65310300  0.60890965     0.96600
O1122       O  0.82369012  0.62262414  0.61675986    -0.83900
O1123       O  0.83109961  0.56403817  0.64998829    -0.86600
C1124       C  0.86277195  0.55701454  0.64660358     1.01100
O1125       O  0.88543565  0.57581419  0.65886740    -0.79300
O1126       O  0.91537072  0.63345739  0.68592243    -0.79500
C1127       C  0.91980531  0.65343027  0.66365931     1.01100
O1128       O  0.87001585  0.68079795  0.71254344    -0.86800
O1129       O  0.80455449  0.68462115  0.68955219    -0.83900
C1130       C  0.77664159  0.67614308  0.67712710     0.96600
O1131       O  0.77562771  0.65007902  0.65996216    -0.83900
O1132       O  0.78913101  0.59302020  0.69689890    -0.86500
C1133       C  0.80652187  0.57164330  0.71205545     1.01100
O1134       O  0.83886307  0.56949102  0.70883524    -0.79400
O1135       O  0.86302257  0.62952458  0.73252939    -0.79500
C1136       C  0.86667926  0.66159246  0.73554173     1.01100
Cr1137     Cr  0.84961545  0.67425805  0.67095997     1.93700
Cr1138     Cr  0.80743825  0.60915768  0.65731278     1.93200
Cr1139     Cr  0.87355058  0.60412730  0.69498720     1.39100
O1140       O  0.84350778  0.62925209  0.67447588    -1.24600
O1141       O  0.35394986  0.87327961  0.79300666    -0.86800
O1142       O  0.34818476  0.80860102  0.81716339    -0.83900
C1143       C  0.35555989  0.78050334  0.82971704     0.96600
O1144       O  0.38105810  0.77874005  0.84747075    -0.83900
O1145       O  0.43913464  0.78958902  0.81114549    -0.86600
C1146       C  0.46083825  0.80598364  0.79540634     1.01100
O1147       O  0.46424579  0.83822509  0.79822130    -0.79300
O1148       O  0.40506709  0.86424430  0.77326951    -0.79500
C1149       C  0.37325269  0.86990209  0.77007203     1.01100
O1150       O  0.36611966  0.89915611  0.85304761    -0.86800
O1151       O  0.35548592  0.83677233  0.87797805    -0.83900
C1152       C  0.37907742  0.83528843  0.89780292     0.96600
O1153       O  0.40933593  0.82692709  0.89045371    -0.83900
O1154       O  0.46863825  0.83184700  0.85765402    -0.86500
C1155       C  0.47624767  0.86342772  0.86048878     1.01100
O1156       O  0.45845507  0.88608607  0.84728364    -0.79400
O1157       O  0.40319000  0.91731755  0.81931247    -0.79500
C1158       C  0.38188185  0.92337610  0.84028276     1.01100
Cr1159     Cr  0.35939719  0.85362170  0.83500177     1.93700
Cr1160     Cr  0.42290450  0.80940370  0.85020994     1.93200
Cr1161     Cr  0.43061827  0.87431405  0.81111419     1.39100
O1162       O  0.40422642  0.84579327  0.83209059    -1.24600
O1163       O  0.12370604  0.66959025  0.82744114    -0.86800
O1164       O  0.16702640  0.67228391  0.87553396    -0.83900
C1165       C  0.18949908  0.66249834  0.89412756     0.96600
O1166       O  0.21647781  0.64703841  0.88541033    -0.83900
O1167       O  0.19095433  0.58201022  0.87461839    -0.86600
C1168       C  0.17243592  0.55920624  0.86243101     1.01100
O1169       O  0.16397001  0.56170105  0.83501243    -0.79300
O1170       O  0.11705552  0.61440045  0.83513656    -0.79500
C1171       C  0.10525633  0.64461743  0.83623102     1.01100
O1172       O  0.18187594  0.68028741  0.78819169    -0.86800
O1173       O  0.22328280  0.69073884  0.83738373    -0.83900
C1174       C  0.25139450  0.67642605  0.83036614     0.96600
O1175       O  0.25372435  0.64404835  0.82918542    -0.83900
O1176       O  0.23089648  0.57676329  0.82016494    -0.86500
C1177       C  0.22159678  0.57410267  0.79280239     1.01100
O1178       O  0.19619456  0.59082779  0.78289713    -0.79400
O1179       O  0.14515685  0.63875183  0.77887494    -0.79500
C1180       C  0.16319509  0.66387382  0.76994834     1.01100
Cr1181     Cr  0.17481501  0.67511298  0.83204788     1.93700
Cr1182     Cr  0.22044876  0.61380728  0.85074617     1.93200
Cr1183     Cr  0.15755244  0.60342295  0.80953673     1.39100
O1184       O  0.18455275  0.63071777  0.83075791    -1.24600
C1185       C  0.30164948  0.75502374  0.80885974    -0.14800
C1186       C  0.33232725  0.75059391  0.82527850     0.07300
C1187       C  0.33837087  0.71876422  0.83961691    -0.14800
C1188       C  0.31306393  0.69287527  0.83923759    -0.14800
C1189       C  0.28135951  0.69880816  0.82488887     0.07300
C1190       C  0.27635878  0.72957337  0.80894208    -0.14800
H1191       H  0.29620997  0.77901417  0.79732216     0.11300
H1192       H  0.36183966  0.71452469  0.85230845     0.11300
H1193       H  0.31725918  0.66936102  0.85188594     0.11300
H1194       H  0.25208779  0.73458348  0.79766156     0.11300
C1195       C  0.68938912  0.71757907  0.66316861    -0.14800
C1196       C  0.69228643  0.74803408  0.68017481     0.07300
C1197       C  0.72117205  0.75224039  0.69902962    -0.14800
C1198       C  0.74761587  0.72786618  0.69928714    -0.14800
C1199       C  0.74590201  0.69855664  0.68073434     0.07300
C1200       C  0.71593954  0.69305753  0.66346549    -0.14800
H1201       H  0.66743892  0.71348225  0.64850045     0.11300
H1202       H  0.72417632  0.77522822  0.71263902     0.11300
H1203       H  0.77014041  0.73280994  0.71307318     0.11300
H1204       H  0.71373040  0.67064330  0.64903834     0.11300
C1205       C  0.50067441  0.78899360  0.72105931    -0.14800
C1206       C  0.53563705  0.78835563  0.72929300     0.07300
C1207       C  0.54440539  0.78384218  0.75975479    -0.14800
C1208       C  0.51862653  0.78414412  0.78196650    -0.14800
C1209       C  0.48391651  0.78880628  0.77386822     0.07300
C1210       C  0.47495485  0.78916185  0.74321514    -0.14800
H1211       H  0.49343995  0.79340610  0.69773163     0.11300
H1212       H  0.57119968  0.78433692  0.76663889     0.11300
H1213       H  0.52612574  0.78487900  0.80553087     0.11300
H1214       H  0.44849856  0.79382236  0.73652340     0.11300
C1215       C  0.71244756  0.34848540  0.83730548    -0.14800
C1216       C  0.74612675  0.34023139  0.82790115     0.07300
C1217       C  0.75270582  0.30714762  0.81657946    -0.14800
C1218       C  0.72721645  0.28196307  0.81693926    -0.14800
C1219       C  0.69436313  0.28906649  0.82864716     0.07300
C1220       C  0.68659373  0.32293171  0.83768187    -0.14800
H1221       H  0.70677284  0.37384089  0.84618919     0.11300
H1222       H  0.77824132  0.30020644  0.80873957     0.11300
H1223       H  0.73375305  0.25624776  0.80934124     0.11300
H1224       H  0.66143035  0.32900542  0.84683337     0.11300
C1225       C  0.78642309  0.52573519  0.78365314    -0.14800
C1226       C  0.78987015  0.49159969  0.77350041     0.07300
C1227       C  0.78888100  0.48490255  0.74235508    -0.14800
C1228       C  0.78890163  0.51204794  0.72169157    -0.14800
C1229       C  0.79012493  0.54621018  0.73187055     0.07300
C1230       C  0.78701416  0.55301105  0.76287734    -0.14800
H1231       H  0.78770877  0.53153722  0.80756370     0.11300
H1232       H  0.79180894  0.45882208  0.73402477     0.11300
H1233       H  0.79207590  0.50634004  0.69788196     0.11300
H1234       H  0.78887313  0.57920727  0.77115445     0.11300
C1235       C  0.24242443  0.52674814  0.72178600    -0.14800
C1236       C  0.23817744  0.49281707  0.73206792     0.07300
C1237       C  0.23779818  0.48624774  0.76327291    -0.14800
C1238       C  0.23751243  0.51352867  0.78379750    -0.14800
C1239       C  0.23657933  0.54757253  0.77323128     0.07300
C1240       C  0.24097318  0.55408747  0.74227446    -0.14800
H1241       H  0.24232970  0.53238280  0.69780995     0.11300
H1242       H  0.23422778  0.46023808  0.77162224     0.11300
H1243       H  0.23365480  0.50798537  0.80756115     0.11300
H1244       H  0.24003863  0.58023308  0.73374482     0.11300
C1245       C  0.30542819  0.28462961  0.68820636    -0.14800
C1246       C  0.33770959  0.29134566  0.67519078     0.07300
C1247       C  0.34537333  0.32499270  0.66543022    -0.14800
C1248       C  0.31977693  0.35071512  0.66636245    -0.14800
C1249       C  0.28653411  0.34281500  0.67711764     0.07300
C1250       C  0.28022742  0.30999871  0.68918826    -0.14800
H1251       H  0.29904768  0.25906093  0.69633204     0.11300
H1252       H  0.37012244  0.33070588  0.65525546     0.11300
H1253       H  0.32516225  0.37582314  0.65677975     0.11300
H1254       H  0.25498617  0.30334559  0.69794623     0.11300
C1255       C  0.52148707  0.24602273  0.72024341    -0.14800
C1256       C  0.48765402  0.24477590  0.73150217     0.07300
C1257       C  0.48227887  0.24719345  0.76281819    -0.14800
C1258       C  0.51033640  0.24718252  0.78264038    -0.14800
C1259       C  0.54400907  0.24355745  0.77144750     0.07300
C1260       C  0.54951516  0.24480541  0.74008615    -0.14800
H1261       H  0.52630311  0.24375445  0.69618775     0.11300
H1262       H  0.45643512  0.24601897  0.77199152     0.11300
H1263       H  0.50539987  0.24589772  0.80673547     0.11300
H1264       H  0.57523566  0.24184630  0.73096162     0.11300
C1265       C  0.68273079  0.02756257  0.85245761    -0.14800
C1266       C  0.66306601  0.01536528  0.87690848     0.07300
C1267       C  0.63465499  0.03484155  0.88678314    -0.14800
C1268       C  0.62632870  0.06605599  0.87277029    -0.14800
C1269       C  0.64674786  0.07883186  0.84910256     0.07300
C1270       C  0.67493474  0.05925441  0.83896940    -0.14800
H1271       H  0.70484508  0.01319399  0.84445989     0.11300
H1272       H  0.61901595  0.02606072  0.90555510     0.11300
H1273       H  0.60473231  0.08088121  0.88121911     0.11300
H1274       H  0.69111815  0.06864904  0.82078477     0.11300
C1275       C  0.68660942  0.84521405  0.53053737    -0.14800
C1276       C  0.65919792  0.86018634  0.51439846     0.07300
C1277       C  0.62689821  0.86311098  0.52836324    -0.14800
C1278       C  0.62198500  0.85162384  0.55786428    -0.14800
C1279       C  0.64946337  0.83767962  0.57453702     0.07300
C1280       C  0.68192070  0.83454594  0.56064648    -0.14800
H1281       H  0.71182092  0.84284611  0.52021916     0.11300
H1282       H  0.60532324  0.87443049  0.51642268     0.11300
H1283       H  0.59676005  0.85476893  0.56802290     0.11300
H1284       H  0.70352903  0.82400320  0.57304366     0.11300
C1285       C  0.70099294  0.88832989  0.80251979    -0.14800
C1286       C  0.67999780  0.87464101  0.82557275     0.07300
C1287       C  0.64955701  0.85731076  0.81745959    -0.14800
C1288       C  0.63960864  0.85481459  0.78734473    -0.14800
C1289       C  0.65989203  0.86929683  0.76432127     0.07300
C1290       C  0.69111088  0.88547153  0.77206870    -0.14800
H1291       H  0.72454996  0.90191671  0.80804717     0.11300
H1292       H  0.63275531  0.84632617  0.83449250     0.11300
H1293       H  0.61566921  0.84171180  0.78210467     0.11300
H1294       H  0.70726972  0.89677840  0.75473183     0.11300
C1295       C  0.54967640  0.91538748  0.89474411    -0.14800
C1296       C  0.57055312  0.88899767  0.90654544     0.07300
C1297       C  0.55871403  0.85483741  0.90509088    -0.14800
C1298       C  0.52760577  0.84696017  0.89102053    -0.14800
C1299       C  0.50739815  0.87299819  0.87794223     0.07300
C1300       C  0.51832001  0.90744751  0.88055219    -0.14800
H1301       H  0.55805849  0.94198920  0.89563847     0.11300
H1302       H  0.57399862  0.83387412  0.91407551     0.11300
H1303       H  0.51989646  0.82017987  0.88967365     0.11300
H1304       H  0.50315522  0.92811250  0.87090801     0.11300
C1305       C  0.01826210  0.63271047  0.87423587    -0.14800
C1306       C  0.00667682  0.66696673  0.87600362     0.07300
C1307       C  0.02633732  0.69304349  0.86225964    -0.14800
C1308       C  0.05765068  0.68540244  0.84840654    -0.14800
C1309       C  0.07016279  0.65146808  0.84788177     0.07300
C1310       C  0.04979151  0.62502316  0.86031273    -0.14800
H1311       H  0.00357252  0.61204014  0.88449094     0.11300
H1312       H  0.01804898  0.71966927  0.86295745     0.11300
H1313       H  0.07254976  0.70636997  0.83886402     0.11300
H1314       H  0.05871354  0.59859682  0.86014362     0.11300
C1315       C  0.83897500  0.82102629  0.91649446    -0.14800
C1316       C  0.83201316  0.78914877  0.93052170     0.07300
C1317       C  0.79998806  0.78446832  0.94481012    -0.14800
C1318       C  0.77465877  0.80986045  0.94314674    -0.14800
C1319       C  0.78085285  0.84081445  0.92765532     0.07300
C1320       C  0.81362235  0.84680918  0.91526936    -0.14800
H1321       H  0.86340638  0.82544356  0.90529003     0.11300
H1322       H  0.79371698  0.76039211  0.95590835     0.11300
H1323       H  0.74958952  0.80475573  0.95301294     0.11300
H1324       H  0.81885774  0.87040448  0.90302608     0.11300
C1325       C  0.87630132  0.68710286  0.53970011    -0.14800
C1326       C  0.86153026  0.66717198  0.51654676     0.07300
C1327       C  0.83453725  0.64447695  0.52368994    -0.14800
C1328       C  0.82356985  0.64063811  0.55367753    -0.14800
C1329       C  0.83855798  0.66032595  0.57687187     0.07300
C1330       C  0.86454337  0.68411068  0.56949591    -0.14800
H1331       H  0.89711698  0.70486397  0.53474815     0.11300
H1332       H  0.82287704  0.62872852  0.00627239     0.11300
H1333       H  0.80372446  0.62189544  0.55884547     0.11300
H1334       H  0.87688904  0.69921521  0.58699843     0.11300
C1335       C  0.84878663  0.67413595  0.81884356    -0.14800
C1336       C  0.87223452  0.70029426  0.82643801     0.07300
C1337       C  0.89218326  0.71544301  0.80341071    -0.14800
C1338       C  0.88937855  0.70396508  0.77348772    -0.14800
C1339       C  0.86742671  0.67638889  0.76631325     0.07300
C1340       C  0.84678184  0.66196158  0.78916422    -0.14800
H1341       H  0.83343722  0.66171589  0.83616944     0.11300
H1342       H  0.91061474  0.73552245  0.80871798     0.11300
H1343       H  0.90551443  0.71551278  0.75625135     0.11300
H1344       H  0.82942289  0.64085625  0.78411795     0.11300
C1345       C  0.86308223  0.57833839  0.87181044    -0.14800
C1346       C  0.87551054  0.58154186  0.90146131     0.07300
C1347       C  0.88054593  0.55151614  0.91878822    -0.14800
C1348       C  0.87256776  0.51894839  0.90664646    -0.14800
C1349       C  0.86043000  0.51615106  0.87682995     0.07300
C1350       C  0.85598146  0.54611813  0.85960310    -0.14800
H1351       H  0.85911608  0.60086810  0.85778850     0.11300
H1352       H  0.89009106  0.55328428  0.94171657     0.11300
H1353       H  0.87648431  0.49605336  0.92020664     0.11300
H1354       H  0.84665331  0.54462876  0.83656901     0.11300
C1355       C  0.02961996  0.39838087  0.61760541    -0.14800
C1356       C  0.01167150  0.36870921  0.62692065     0.07300
C1357       C  0.02544859  0.34839590  0.65018822    -0.14800
C1358       C  0.05726523  0.35691777  0.66309174    -0.14800
C1359       C  0.07535598  0.38637148  0.65348447     0.07300
C1360       C  0.06096939  0.40733144  0.63098444    -0.14800
H1361       H  0.01952667  0.41453982  0.59972602     0.11300
H1362       H  0.01223848  0.32530916  0.65763747     0.11300
H1363       H  0.06788509  0.34033111  0.68042000     0.11300
H1364       H  0.07455008  0.42997605  0.62299286     0.11300
C1365       C  0.88034913  0.37148843  0.93793855    -0.14800
C1366       C  0.84591776  0.37355386  0.92845741     0.07300
C1367       C  0.81930782  0.37232539  0.94998594    -0.14800
C1368       C  0.82725494  0.36943566  0.98073365    -0.14800
C1369       C  0.86182574  0.36889025  0.99000991     0.07300
C1370       C  0.88820957  0.36955755  0.96843531    -0.14800
H1371       H  0.90134819  0.37257812  0.92180885     0.11300
H1372       H  0.79257733  0.37380972  0.94305736     0.11300
H1373       H  0.80663614  0.36886482  0.99723178     0.11300
H1374       H  0.91504018  0.36876382  0.97522629     0.11300
C1375       C  0.86668069  0.38405442  0.68790180    -0.14800
C1376       C  0.87204017  0.34994186  0.67850645     0.07300
C1377       C  0.87337532  0.32346777  0.70014920    -0.14800
C1378       C  0.86930923  0.33122915  0.73084465    -0.14800
C1379       C  0.86486218  0.36554768  0.73993152     0.07300
C1380       C  0.86345390  0.39178474  0.71831589    -0.14800
H1381       H  0.86584721  0.40503995  0.67176375     0.11300
H1382       H  0.87757860  0.29700768  0.69335645     0.11300
H1383       H  0.87073143  0.31078550  0.74745681     0.11300
H1384       H  0.85998050  0.41840723  0.72502899     0.11300
C1385       C  0.85331560  0.47457873  0.60181428    -0.14800
C1386       C  0.88717971  0.46190091  0.60073158     0.07300
C1387       C  0.91380512  0.48193798  0.61337531    -0.14800
C1388       C  0.90637268  0.51345147  0.62764404    -0.14800
C1389       C  0.87218663  0.52540505  0.62951789     0.07300
C1390       C  0.84595341  0.50578040  0.61594276    -0.14800
H1391       H  0.83215158  0.45998258  0.59227986     0.11300
H1392       H  0.94018979  0.47285568  0.61292944     0.11300
H1393       H  0.92718222  0.52798102  0.63782009     0.11300
H1394       H  0.81934410  0.51415726  0.61673822     0.11300
C1395       C  0.74066289  0.98336189  0.01306538    -0.14800
C1396       C  0.73849919  0.99104141  0.98215615     0.07300
C1397       C  0.74187334  0.02544950  0.97265895    -0.14800
C1398       C  0.74263677  0.05206309  0.49404794    -0.14800
C1399       C  0.74075871  0.04434985  0.52495783     0.07300
C1400       C  0.74188192  0.00985284  0.53432397    -0.14800
H1401       H  0.73780291  0.95704011  0.02087529     0.11300
H1402       H  0.73958392  0.03198427  0.94896529     0.11300
H1403       H  0.74077615  0.07853862  0.48642159     0.11300
H1404       H  0.73964142  0.00345165  0.55807308     0.11300
C1405       C  0.69042939  0.99541937  0.62874327    -0.14800
C1406       C  0.66524422  0.02140386  0.62791238     0.07300
C1407       C  0.63213794  0.01416387  0.63928314    -0.14800
C1408       C  0.62442034  0.98139988  0.65096499    -0.14800
C1409       C  0.64943188  0.95520643  0.65072959     0.07300
C1410       C  0.68252053  0.96267260  0.63969435    -0.14800
H1411       H  0.71610603  0.00002106  0.61997272     0.11300
H1412       H  0.61220829  0.03366983  0.63885953     0.11300
H1413       H  0.59865794  0.97620687  0.65927030     0.11300
H1414       H  0.70234711  0.94304621  0.63940564     0.11300
C1415       C  0.81698643  0.19353504  0.58756321    -0.14800
C1416       C  0.78453276  0.20039126  0.57460584     0.07300
C1417       C  0.77909687  0.23261592  0.56090184    -0.14800
C1418       C  0.80435042  0.25819958  0.56218454    -0.14800
C1419       C  0.83594469  0.25205194  0.57662052     0.07300
C1420       C  0.84263528  0.21911466  0.58832988    -0.14800
H1421       H  0.82201105  0.16896643  0.59827311     0.11300
H1422       H  0.75455707  0.23882860  0.55061345     0.11300
H1423       H  0.79869355  0.28336894  0.55282948     0.11300
H1424       H  0.86675992  0.21387189  0.59972914     0.11300
C1425       C  0.67428762  0.15700119  0.93841793    -0.14800
C1426       C  0.65747945  0.18748166  0.92981272     0.07300
C1427       C  0.64327189  0.20867646  0.95245176    -0.14800
C1428       C  0.64550460  0.19916382  0.98304338    -0.14800
C1429       C  0.66155866  0.16811283  0.99129445     0.07300
C1430       C  0.67617599  0.14744056  0.96863498    -0.14800
H1431       H  0.68549415  0.13998417  0.92171215     0.11300
H1432       H  0.62994631  0.23222043  0.94649557     0.11300
H1433       H  0.63397798  0.21552137  0.50007980     0.11300
H1434       H  0.68908051  0.12352671  0.97425011     0.11300
C1435       C  0.68696014  0.13038610  0.69822227    -0.14800
C1436       C  0.69797926  0.15837674  0.68053901     0.07300
C1437       C  0.69954408  0.19131816  0.69373514    -0.14800
C1438       C  0.69003809  0.19595427  0.72414715    -0.14800
C1439       C  0.67793183  0.16787981  0.74124933     0.07300
C1440       C  0.67674787  0.13514642  0.72801967    -0.14800
H1441       H  0.68498273  0.10476466  0.68867943     0.11300
H1442       H  0.70774180  0.21334759  0.68053343     0.11300
H1443       H  0.69079398  0.22152854  0.73389965     0.11300
H1444       H  0.66746801  0.11313030  0.74071601     0.11300
C1445       C  0.57420731  0.16550359  0.63894104    -0.14800
C1446       C  0.57794118  0.15706954  0.60830944     0.07300
C1447       C  0.54854991  0.15608543  0.58974452    -0.14800
C1448       C  0.51598762  0.16410414  0.60165694    -0.14800
C1449       C  0.51238549  0.17209666  0.63244962     0.07300
C1450       C  0.54176699  0.17249126  0.65095792    -0.14800
H1451       H  0.59644898  0.16636620  0.65374097     0.11300
H1452       H  0.55089457  0.14983039  0.56598554     0.11300
H1453       H  0.49365236  0.16365078  0.58699535     0.11300
H1454       H  0.53972892  0.17884435  0.67471284     0.11300
C1455       C  0.34082763  0.03552793  0.64575794    -0.14800
C1456       C  0.36553784  0.01814432  0.62830350     0.07300
C1457       C  0.39917030  0.03155599  0.62656418    -0.14800
C1458       C  0.40744996  0.06257668  0.64096644    -0.14800
C1459       C  0.38222139  0.08065271  0.65730923     0.07300
C1460       C  0.34906978  0.06641418  0.66008117    -0.14800
H1461       H  0.31479476  0.02567315  0.64779915     0.11300
H1462       H  0.41874554  0.01870993  0.61324938     0.11300
H1463       H  0.43315805  0.07307424  0.63832323     0.11300
H1464       H  0.32914461  0.07962797  0.67271150     0.11300
C1465       C  0.38540550  0.84160807  0.98333186    -0.14800
C1466       C  0.36436913  0.87027921  0.98932664     0.07300
C1467       C  0.34635688  0.88557757  0.96525059    -0.14800
C1468       C  0.34960739  0.87277124  0.93578811    -0.14800
C1469       C  0.37170480  0.84499760  0.92958188     0.07300
C1470       C  0.38952748  0.82949032  0.95366763    -0.14800
H1471       H  0.39963903  0.82936026  0.50142331     0.11300
H1472       H  0.32984646  0.90760508  0.96920846     0.11300
H1473       H  0.33602709  0.88560413  0.91761172     0.11300
H1474       H  0.40696934  0.80825752  0.94946812     0.11300
C1475       C  0.35751194  0.85641978  0.68628606    -0.14800
C1476       C  0.33411230  0.88297442  0.67953275     0.07300
C1477       C  0.32250461  0.90424648  0.70318725    -0.14800
C1478       C  0.33423973  0.89919782  0.73284658    -0.14800
C1479       C  0.35870924  0.87355978  0.73926417     0.07300
C1480       C  0.37005340  0.85209354  0.71573705    -0.14800
H1481       H  0.36731991  0.83993805  0.66851897     0.11300
H1482       H  0.30472700  0.92511339  0.69866134     0.11300
H1483       H  0.32521514  0.91618121  0.75057177     0.11300
H1484       H  0.38881058  0.83205633  0.72013161     0.11300
C1485       C  0.45700338  0.84973556  0.60956928    -0.14800
C1486       C  0.44954792  0.88375458  0.60118365     0.07300
C1487       C  0.47495424  0.90923858  0.60438987    -0.14800
C1488       C  0.50699119  0.90092013  0.61705521    -0.14800
C1489       C  0.51416382  0.86687992  0.62602428     0.07300
C1490       C  0.48906118  0.84130428  0.62155602    -0.14800
H1491       H  0.43775604  0.82966922  0.60721075     0.11300
H1492       H  0.46952235  0.93570602  0.59828736     0.11300
H1493       H  0.52587184  0.92114768  0.62031466     0.11300
H1494       H  0.49369264  0.81490073  0.62833960     0.11300
C1495       C  0.02277751  0.74819535  0.96992576    -0.14800
C1496       C  0.98856032  0.74732496  0.98014475     0.07300
C1497       C  0.98182571  0.74965080  0.51120719    -0.14800
C1498       C  0.00910992  0.74889814  0.53191816    -0.14800
C1499       C  0.04316854  0.74496716  0.52161849     0.07300
C1500       C  0.04994236  0.74681777  0.99052672    -0.14800
H1501       H  0.02840786  0.74564289  0.94604280     0.11300
H1502       H  0.95558823  0.74800115  0.51950035     0.11300
H1503       H  0.00327270  0.74699393  0.55580135     0.11300
H1504       H  0.07598601  0.74364077  0.98211320     0.11300
C1505       C  0.01666924  0.66540917  0.65581355    -0.14800
C1506       C  0.01910094  0.67422778  0.62510342     0.07300
C1507       C  0.98905877  0.67602501  0.60760325    -0.14800
C1508       C  0.95707057  0.66932624  0.62045224    -0.14800
C1509       C  0.95435686  0.65998522  0.65099966     0.07300
C1510       C  0.98441622  0.65780378  0.66862997    -0.14800
H1511       H  0.03964772  0.66382696  0.66962558     0.11300
H1512       H  0.99028199  0.68303409  0.58391957     0.11300
H1513       H  0.93437402  0.67107698  0.60629290     0.11300
H1514       H  0.98288070  0.65080537  0.69227654     0.11300
C1515       C  0.18542761  0.82215772  0.58925536    -0.14800
C1516       C  0.19288032  0.78987059  0.57649864     0.07300
C1517       C  0.22441247  0.78498387  0.56171329    -0.14800
C1518       C  0.24890440  0.81115822  0.56094139    -0.14800
C1519       C  0.24281986  0.84274009  0.57555335     0.07300
C1520       C  0.21043016  0.84839660  0.58904502    -0.14800
H1521       H  0.16126888  0.82632371  0.60096795     0.11300
H1522       H  0.23062619  0.76031983  0.55162911     0.11300
H1523       H  0.27343002  0.80583653  0.55022210     0.11300
H1524       H  0.20498173  0.87245835  0.60044618     0.11300
C1525       C  0.20275895  0.67471335  0.97799848    -0.14800
C1526       C  0.16848261  0.67294095  0.98800611     0.07300
C1527       C  0.14165241  0.66984290  0.96704002    -0.14800
C1528       C  0.14883812  0.66775397  0.93645332    -0.14800
C1529       C  0.18305552  0.66801153  0.92630302     0.07300
C1530       C  0.21008713  0.67168139  0.94715034    -0.14800
H1531       H  0.22370602  0.67714619  0.49401648     0.11300
H1532       H  0.11500731  0.66878928  0.97437675     0.11300
H1533       H  0.12759571  0.66469878  0.92078783     0.11300
H1534       H  0.23665354  0.67199366  0.93960745     0.11300
C1535       C  0.15468604  0.65490647  0.68624687    -0.14800
C1536       C  0.15839134  0.68904309  0.67651353     0.07300
C1537       C  0.16396720  0.71537530  0.69765507    -0.14800
C1538       C  0.16633298  0.70737252  0.72837999    -0.14800
C1539       C  0.16196278  0.67319952  0.73801313     0.07300
C1540       C  0.15608665  0.64710681  0.71676403    -0.14800
H1541       H  0.14992137  0.63430857  0.67025338     0.11300
H1542       H  0.16675275  0.74188020  0.69038272     0.11300
H1543       H  0.17081778  0.72778395  0.74457976     0.11300
H1544       H  0.15287574  0.62053397  0.72375525     0.11300
C1545       C  0.17704535  0.56024327  0.58793024    -0.14800
C1546       C  0.14716193  0.57805634  0.59694620     0.07300
C1547       C  0.12568182  0.56314805  0.61887743    -0.14800
C1548       C  0.13474832  0.53191418  0.63254921    -0.14800
C1549       C  0.16508916  0.51450324  0.62411967     0.07300
C1550       C  0.18569996  0.52856271  0.60111249    -0.14800
H1551       H  0.19406338  0.57114042  0.57102134     0.11300
H1552       H  0.10266390  0.57638547  0.62641817     0.11300
H1553       H  0.11825791  0.52161532  0.65013565     0.11300
H1554       H  0.20924234  0.51580717  0.59421790     0.11300
C1555       C  0.39345555  0.01661337  0.86339403    -0.14800
C1556       C  0.36033685  0.02440353  0.87437270     0.07300
C1557       C  0.33417791  0.99947598  0.87202762    -0.14800
C1558       C  0.34123265  0.96701896  0.86021888    -0.14800
C1559       C  0.37441403  0.95889769  0.84988873     0.07300
C1560       C  0.40034667  0.98414363  0.85088431    -0.14800
H1561       H  0.41406811  0.03536077  0.86493164     0.11300
H1562       H  0.30842388  0.00456560  0.88036838     0.11300
H1563       H  0.32077788  0.94800388  0.85955699     0.11300
H1564       H  0.42618906  0.97827982  0.84318277     0.11300
C1565       C  0.28060163  0.05692568  0.50904820    -0.14800
C1566       C  0.28522996  0.04778002  0.97870053     0.07300
C1567       C  0.28476476  0.01284738  0.97053454    -0.14800
C1568       C  0.28348890  0.98727811  0.99273447    -0.14800
C1569       C  0.28288752  0.99640780  0.52334338     0.07300
C1570       C  0.27951723  0.03128893  0.53130923    -0.14800
H1571       H  0.28190832  0.08371155  0.51582633     0.11300
H1572       H  0.28918855  0.00537637  0.94725828     0.11300
H1573       H  0.28725717  0.96065672  0.98618276     0.11300
H1574       H  0.28018826  0.03885555  0.55486346     0.11300
C1575       C  0.38101360  0.21182137  0.55140202    -0.14800
C1576       C  0.37129464  0.18853363  0.57430211     0.07300
C1577       C  0.35806594  0.15623227  0.56595518    -0.14800
C1578       C  0.35576240  0.14685770  0.53570536    -0.14800
C1579       C  0.36641425  0.16951369  0.51271784     0.07300
C1580       C  0.37837090  0.20245815  0.52079197    -0.14800
H1581       H  0.39116329  0.23696960  0.55714905     0.11300
H1582       H  0.35025341  0.13761384  0.58287513     0.11300
H1583       H  0.34585731  0.12147032  0.53037431     0.11300
H1584       H  0.38646120  0.22056061  0.50356419     0.11300
C1585       C  0.33281316  0.19463321  0.81110881    -0.14800
C1586       C  0.32850136  0.16112425  0.82265353     0.07300
C1587       C  0.33300664  0.13287729  0.80312916    -0.14800
C1588       C  0.34376349  0.13782838  0.77342101    -0.14800
C1589       C  0.34935682  0.17111080  0.76226705     0.07300
C1590       C  0.34278029  0.19959959  0.78091810    -0.14800
H1591       H  0.32951103  0.21685009  0.82560149     0.11300
H1592       H  0.32996446  0.10670536  0.81120869     0.11300
H1593       H  0.34858107  0.11554820  0.75929155     0.11300
H1594       H  0.34715212  0.22549684  0.77263324     0.11300
C1595       C  0.45508331  0.16910835  0.86592590    -0.14800
C1596       C  0.45123746  0.15808694  0.89595492     0.07300
C1597       C  0.48079701  0.15443689  0.91409250    -0.14800
C1598       C  0.51358090  0.16228029  0.90240786    -0.14800
C1599       C  0.51718663  0.17278329  0.87218388     0.07300
C1600       C  0.48767746  0.17591411  0.85409807    -0.14800
H1601       H  0.43281852  0.17208353  0.85141033     0.11300
H1602       H  0.47846985  0.14613316  0.93738049     0.11300
H1603       H  0.53605802  0.15960048  0.91669801     0.11300
H1604       H  0.48979449  0.18414685  0.83075887     0.11300
C1605       C  0.97433030  0.35861249  0.84016398    -0.14800
C1606       C  0.95774702  0.38984304  0.84716977     0.07300
C1607       C  0.97436862  0.41340486  0.86631085    -0.14800
C1608       C  0.00590283  0.40491621  0.87969881    -0.14800
C1609       C  0.02175454  0.37310786  0.87360362     0.07300
C1610       C  0.00624031  0.35049291  0.85300071    -0.14800
H1611       H  0.96219153  0.34003195  0.82533283     0.11300
H1612       H  0.96221102  0.43762795  0.87209923     0.11300
H1613       H  0.01756550  0.42287989  0.89539101     0.11300
H1614       H  0.01790804  0.32579486  0.84803679     0.11300
C1615       C  0.97983457  0.29513612  0.98985051    -0.14800
C1616       C  0.98645689  0.29505691  0.52103887     0.07300
C1617       C  0.02043616  0.29083147  0.53123862    -0.14800
C1618       C  0.04776796  0.29244467  0.51069188    -0.14800
C1619       C  0.04119169  0.29693837  0.97976273     0.07300
C1620       C  0.00712070  0.29557177  0.96926288    -0.14800
H1621       H  0.95378916  0.29855436  0.98155226     0.11300
H1622       H  0.02613437  0.29101917  0.55519871     0.11300
H1623       H  0.07393199  0.29359247  0.51917662     0.11300
H1624       H  0.00152082  0.29937134  0.94551228     0.11300
C1625       C  0.18697450  0.22288937  0.91543477    -0.14800
C1626       C  0.19365030  0.25522540  0.92829859     0.07300
C1627       C  0.22497973  0.26075104  0.94333901    -0.14800
C1628       C  0.25010408  0.23510002  0.94407520    -0.14800
C1629       C  0.24469285  0.20353877  0.92924712     0.07300
C1630       C  0.21244901  0.19727733  0.91569350    -0.14800
H1631       H  0.16306244  0.21825173  0.90348679     0.11300
H1632       H  0.23056984  0.28552843  0.95349906     0.11300
H1633       H  0.27451064  0.24077234  0.95485336     0.11300
H1634       H  0.20749016  0.17322262  0.90410168     0.11300
C1635       C  0.20350430  0.37412498  0.52338126    -0.14800
C1636       C  0.16870567  0.37226537  0.51484852     0.07300
C1637       C  0.14292853  0.37194073  0.53694390    -0.14800
C1638       C  0.15161231  0.37359738  0.56725951    -0.14800
C1639       C  0.18625157  0.37639391  0.57606427     0.07300
C1640       C  0.21225951  0.37674583  0.55397753    -0.14800
H1641       H  0.22365269  0.37450191  0.00643432     0.11300
H1642       H  0.11595948  0.37029115  0.53071830     0.11300
H1643       H  0.13102755  0.37366158  0.58382722     0.11300
H1644       H  0.23911285  0.37900203  0.56036378     0.11300
C1645       C  0.15896674  0.38739171  0.81605349    -0.14800
C1646       C  0.16029554  0.35329629  0.82639734     0.07300
C1647       C  0.16521931  0.32635504  0.80564862    -0.14800
C1648       C  0.16888959  0.33366388  0.77480788    -0.14800
C1649       C  0.16650289  0.36781539  0.76459400     0.07300
C1650       C  0.16167843  0.39453123  0.78544154    -0.14800
H1651       H  0.15487647  0.40855401  0.83160690     0.11300
H1652       H  0.16630261  0.29986664  0.81328741     0.11300
H1653       H  0.17253250  0.31275548  0.75893908     0.11300
H1654       H  0.16000902  0.42108478  0.77801011     0.11300
C1655       C  0.12359426  0.47862821  0.88362347    -0.14800
C1656       C  0.14423701  0.46523906  0.90678177     0.07300
C1657       C  0.17276049  0.48430433  0.91699209    -0.14800
C1658       C  0.18106992  0.51589941  0.90364078    -0.14800
C1659       C  0.16147101  0.52838904  0.87937833     0.07300
C1660       C  0.13235804  0.50974689  0.86981486    -0.14800
H1661       H  0.10166305  0.46423494  0.87522180     0.11300
H1662       H  0.18901109  0.47440890  0.93488624     0.11300
H1663       H  0.20366269  0.52974506  0.91134632     0.11300
H1664       H  0.11672720  0.51892347  0.85121090     0.11300
loop_ 
_geom_bond_atom_site_label_1 
_geom_bond_atom_site_label_2 
_geom_bond_distance 
_geom_bond_site_symmetry_2 
_ccdc_geom_bond_type 
O1          Cr19   1.967       .  S
O1            C9   1.258       .  A
O2          Cr19   1.991       .  S
O2            C3   1.263       .  A
C3            O4   1.262       .  A
C3          C794   1.472       .  S
O4          Cr20   1.989       .  S
O5          Cr20   2.016       .  S
O5            C6   1.267       .  A
C6            O7   1.259       .  A
C6          C787   1.468       .  S
O7          Cr21   1.970       .  S
O8          Cr21   1.996       .  S
O8            C9   1.266       .  A
C9         C1636   1.459       .  S
O10         Cr19   2.004       .  S
O10          C18   1.262       .  A
O11         Cr19   1.957       .  S
O11          C12   1.260       .  A
C12          O13   1.268       .  A
C12         C814   1.466       .  S
O13         Cr20   2.014       .  S
O14         Cr20   1.987       .  S
O14          C15   1.262       .  A
C15          O16   1.263       .  A
C15         C777   1.476       .  S
O16         Cr21   1.996       .  S
O17         Cr21   1.981       .  S
O17          C18   1.259       .  A
C18         C824   1.471       .  S
Cr19         O22   1.770       .  S
Cr20         O22   1.777       .  S
Cr21         O22   1.760       .  S
O23         Cr41   1.970       .  S
O23          C31   1.255       .  A
O24         Cr41   2.025       .  S
O24          C25   1.272       .  A
C25          O26   1.260       .  A
C25         C754   1.481       .  S
O26         Cr42   1.958       .  S
O27         Cr42   2.007       .  S
O27          C28   1.267       .  A
C28          O29   1.263       .  A
C28         C724   1.478       .  S
O29         Cr43   1.985       .  S
O30         Cr43   2.017       .  S
O30          C31   1.263       .  A
C31         C764   1.480       .  S
O32         Cr41   2.031       .  S
O32          C40   1.272       .  A
O33         Cr41   1.970       .  S
O33          C34   1.256       .  A
C34          O35   1.264       .  A
C34         C797   1.483       .  S
O35         Cr42   2.011       .  S
O36         Cr42   1.990       .  S
O36          C37   1.263       .  A
C37          O38   1.266       .  A
C37         C734   1.466       .  S
O38         Cr43   2.004       .  S
O39         Cr43   1.954       .  S
O39          C40   1.259       .  A
C40        C1579   1.484       .  S
Cr41         O44   1.770       .  S
Cr42         O44   1.772       .  S
Cr43         O44   1.769       .  S
O45         Cr63   1.973       .  S
O45          C53   1.259       .  A
O46         Cr63   1.993       .  S
O46          C47   1.264       .  A
C47          O48   1.261       .  A
C47         C684   1.472       .  S
O48         Cr64   1.986       .  S
O49         Cr64   2.023       .  S
O49          C50   1.270       .  A
C50          O51   1.261       .  A
C50         C667   1.472       .  S
O51         Cr65   1.971       .  S
O52         Cr65   1.989       .  S
O52          C53   1.264       .  A
C53        C1526   1.459   1_554  S
O54         Cr63   2.012       .  S
O54          C62   1.265       .  A
O55         Cr63   1.954       .  S
O55          C56   1.259       .  A
C56          O57   1.266       .  A
C56         C704   1.458       .  S
O57         Cr64   2.007       .  S
O58         Cr64   1.989       .  S
O58          C59   1.259       .  A
C59          O60   1.261       .  A
C59         C674   1.470       .  S
O60         Cr65   1.990       .  S
O61         Cr65   1.993       .  S
O61          C62   1.264       .  A
C62         C714   1.483       .  S
Cr63         O66   1.767       .  S
Cr64         O66   1.775       .  S
Cr65         O66   1.757       .  S
O67         Cr85   1.955       .  S
O67          C75   1.254       .  A
O68         Cr85   2.017       .  S
O68          C69   1.270       .  A
C69          O70   1.261       .  A
C69         C644   1.487       .  S
O70         Cr86   1.978       .  S
O71         Cr86   2.007       .  S
O71          C72   1.268       .  A
C72          O73   1.261       .  A
C72         C624   1.478   1_565  S
O73         Cr87   1.977       .  S
O74         Cr87   2.014       .  S
O74          C75   1.265       .  A
C75         C654   1.470       .  S
O76         Cr85   2.022       .  S
O76          C84   1.269       .  A
O77         Cr85   1.960       .  S
O77          C78   1.256       .  A
C78          O79   1.267       .  A
C78         C687   1.483       .  S
O79         Cr86   2.024       .  S
O80         Cr86   1.995       .  S
O80          C81   1.264       .  A
C81          O82   1.264       .  A
C81         C737   1.465       .  S
O82         Cr87   1.995       .  S
O83         Cr87   1.982       .  S
O83          C84   1.261       .  A
C84        C1466   1.486   1_554  S
Cr85         O88   1.768       .  S
Cr86         O88   1.779       .  S
Cr87         O88   1.769       .  S
O89        Cr107   1.969       .  S
O89          C97   1.255       .  A
O90        Cr107   2.024       .  S
O90          C91   1.270       .  A
C91          O92   1.260       .  A
C91         C604   1.479       .  S
O92        Cr108   1.959       .  S
O93        Cr108   2.013       .  S
O93          C94   1.269       .  A
C94          O95   1.263       .  A
C94         C574   1.482       .  S
O95        Cr109   1.986       .  S
O96        Cr109   2.013       .  S
O96          C97   1.262       .  A
C97         C614   1.475       .  S
O98        Cr107   2.031       .  S
O98         C106   1.272       .  A
O99        Cr107   1.972       .  S
O99         C100   1.258       .  A
C100        O101   1.266       .  A
C100        C584   1.487       .  S
O101       Cr108   2.018       .  S
O102       Cr108   1.991       .  S
O102        C103   1.264       .  A
C103        O104   1.266       .  A
C103        C567   1.464       .  S
O104       Cr109   1.999       .  S
O105       Cr109   1.953       .  S
O105        C106   1.258       .  A
C106       C1429   1.479   1_554  S
Cr107       O110   1.771       .  S
Cr108       O110   1.771       .  S
Cr109       O110   1.768       .  S
O111       Cr129   1.972       .  S
O111        C119   1.258       .  A
O112       Cr129   1.992       .  S
O112        C113   1.263       .  A
C113        O114   1.262       .  A
C113        C587   1.477       .  S
O114       Cr130   1.995       .  S
O115       Cr130   2.020       .  S
O115        C116   1.269       .  A
C116        O117   1.259       .  A
C116        C784   1.469       .  S
O117       Cr131   1.966       .  S
O118       Cr131   1.993       .  S
O118        C119   1.264       .  A
C119       C1369   1.460   1_554  S
O120       Cr129   2.008       .  S
O120        C128   1.266       .  A
O121       Cr129   1.948       .  S
O121        C122   1.258       .  A
C122        O123   1.269       .  A
C122        C544   1.467       .  S
O123       Cr130   2.016       .  S
O124       Cr130   1.989       .  S
O124        C125   1.262       .  A
C125        O126   1.261       .  A
C125        C524   1.477   1_655  S
O126       Cr131   1.991       .  S
O127       Cr131   1.990       .  S
O127        C128   1.261       .  A
C128        C554   1.486       .  S
Cr129       O132   1.768       .  S
Cr130       O132   1.778       .  S
Cr131       O132   1.762       .  S
O133       Cr151   2.026       .  S
O133        C141   1.271       .  A
O134       Cr151   1.973       .  S
O134        C135   1.259       .  A
C135        O136   1.265       .  A
C135        C484   1.485       .  S
O136       Cr152   2.013       .  S
O137       Cr152   1.991       .  S
O137        C138   1.262       .  A
C138        O139   1.264       .  A
C138        C664   1.463       .  S
O139       Cr153   1.995       .  S
O140       Cr153   1.972       .  S
O140        C141   1.260       .  A
C141       C1326   1.479       .  S
O142       Cr151   1.963       .  S
O142        C150   1.254       .  A
O143       Cr151   2.015       .  S
O143        C144   1.270       .  A
C144        O145   1.259       .  A
C144        C504   1.479       .  S
O145       Cr152   1.968       .  S
O146       Cr152   2.006       .  S
O146        C147   1.269       .  A
C147        O148   1.263       .  A
C147        C474   1.480   1_655  S
O148       Cr153   1.983       .  S
O149       Cr153   2.023       .  S
O149        C150   1.264       .  A
C150        C514   1.481       .  S
Cr151       O154   1.766       .  S
Cr152       O154   1.776       .  S
Cr153       O154   1.771       .  S
O155       Cr173   2.005       .  S
O155        C163   1.265       .  A
O156       Cr173   1.963       .  S
O156        C157   1.262       .  A
C157        O158   1.272       .  A
C157        C454   1.485       .  S
O158       Cr174   2.024       .  S
O159       Cr174   1.984       .  S
O159        C160   1.260       .  A
C160        O161   1.264       .  A
C160        C434   1.482   1_565  S
O161       Cr175   2.002       .  S
O162       Cr175   1.985       .  S
O162        C163   1.260       .  A
C163        C464   1.482       .  S
O164       Cr173   1.988       .  S
O164        C172   1.261       .  A
O165       Cr173   1.984       .  S
O165        C166   1.260       .  A
C166        O167   1.262       .  A
C166        C487   1.476       .  S
O167       Cr174   1.997       .  S
O168       Cr174   2.025       .  S
O168        C169   1.270       .  A
C169        O170   1.260       .  A
C169        C564   1.472       .  S
O170       Cr175   1.966       .  S
O171       Cr175   2.012       .  S
O171        C172   1.267       .  A
C172       C1276   1.478       .  S
Cr173       O176   1.766       .  S
Cr174       O176   1.779       .  S
Cr175       O176   1.765       .  S
O177       Cr195   1.986       .  S
O177        C185   1.259       .  A
O178       Cr195   1.985       .  S
O178        C179   1.262       .  A
C179        O180   1.262       .  A
C179        C414   1.477       .  S
O180       Cr196   1.997       .  S
O181       Cr196   2.027       .  S
O181        C182   1.272       .  A
C182        O183   1.261       .  A
C182        C424   1.474       .  S
O183       Cr197   1.970       .  S
O184       Cr197   2.009       .  S
O184        C185   1.266       .  A
C185        C757   1.469       .  S
O186       Cr195   2.005       .  S
O186        C194   1.265       .  A
O187       Cr195   1.965       .  S
O187        C188   1.261       .  A
C188        O189   1.270       .  A
C188        C744   1.484       .  S
O189       Cr196   2.024       .  S
O190       Cr196   1.991       .  S
O190        C191   1.261       .  A
C191        O192   1.263       .  A
C191        C617   1.475       .  S
O192       Cr197   2.000       .  S
O193       Cr197   1.983       .  S
O193        C194   1.261       .  A
C194        C627   1.477       .  S
Cr195       O198   1.762       .  S
Cr196       O198   1.774       .  S
Cr197       O198   1.762       .  S
O199       Cr217   2.009       .  S
O199        C207   1.264       .  A
O200       Cr217   1.948       .  S
O200        C201   1.259       .  A
C201        O202   1.270       .  A
C201        C807   1.465       .  S
O202       Cr218   2.015       .  S
O203       Cr218   1.994       .  S
O203        C204   1.262       .  A
C204        O205   1.261       .  A
C204        C717   1.484       .  S
O205       Cr219   1.994       .  S
O206       Cr219   1.983       .  S
O206        C207   1.260       .  A
C207        C527   1.476       .  S
O208       Cr217   1.977       .  S
O208        C216   1.260       .  A
O209       Cr217   1.985       .  S
O209        C210   1.261       .  A
C210        O211   1.262       .  A
C210        C417   1.478       .  S
O211       Cr218   1.998       .  S
O212       Cr218   2.020       .  S
O212        C213   1.270       .  A
C213        O214   1.259       .  A
C213        C404   1.468       .  S
O214       Cr219   1.962       .  S
O215       Cr219   1.994       .  S
O215        C216   1.264       .  A
C216        C817   1.464       .  S
Cr217       O220   1.770       .  S
Cr218       O220   1.780       .  S
Cr219       O220   1.760       .  S
O221       Cr239   2.008       .  S
O221        C229   1.265       .  A
O222       Cr239   1.952       .  S
O222        C223   1.259       .  A
C223        O224   1.268       .  A
C223        C534   1.466       .  S
O224       Cr240   2.014       .  S
O225       Cr240   1.999       .  S
O225        C226   1.261       .  A
C226        O227   1.261       .  A
C226        C517   1.475       .  S
O227       Cr241   1.992       .  S
O228       Cr241   1.987       .  S
O228        C229   1.263       .  A
C229        C774   1.480       .  S
O230       Cr239   1.973       .  S
O230        C238   1.259       .  A
O231       Cr239   1.991       .  S
O231        C232   1.264       .  A
C232        O233   1.263       .  A
C232        C384   1.480       .  S
O233       Cr240   1.997       .  S
O234       Cr240   2.030       .  S
O234        C235   1.271       .  A
C235        O236   1.260       .  A
C235        C394   1.473       .  S
O236       Cr241   1.965       .  S
O237       Cr241   1.991       .  S
O237        C238   1.263       .  A
C238        C547   1.458       .  S
Cr239       O242   1.767       .  S
Cr240       O242   1.777       .  S
Cr241       O242   1.758       .  S
O243       Cr261   1.991       .  S
O243        C251   1.261       .  A
O244       Cr261   1.984       .  S
O244        C245   1.262       .  A
C245        O246   1.263       .  A
C245        C387   1.479       .  S
O246       Cr262   2.001       .  S
O247       Cr262   2.026       .  S
O247        C248   1.272       .  A
C248        O249   1.262       .  A
C248        C427   1.475       .  S
O249       Cr263   1.971       .  S
O250       Cr263   2.003       .  S
O250        C251   1.266       .  A
C251        C607   1.474       .  S
O252       Cr261   2.013       .  S
O252        C260   1.265       .  A
O253       Cr261   1.965       .  S
O253        C254   1.262       .  A
C254        O255   1.270       .  A
C254        C594   1.483       .  S
O255       Cr262   2.019       .  S
O256       Cr262   1.994       .  S
O256        C257   1.260       .  A
C257        O258   1.262       .  A
C257        C767   1.475       .  S
O258       Cr263   1.997       .  S
O259       Cr263   1.989       .  S
O259        C260   1.262       .  A
C260        C437   1.477       .  S
Cr261       O264   1.764       .  S
Cr262       O264   1.775       .  S
Cr263       O264   1.761       .  S
O265       Cr283   2.025       .  S
O265        C273   1.270       .  A
O266       Cr283   1.967       .  S
O266        C267   1.255       .  A
C267        O268   1.266       .  A
C267        C364   1.486       .  S
O268       Cr284   2.023       .  S
O269       Cr284   1.996       .  S
O269        C270   1.265       .  A
C270        O271   1.266       .  A
C270        C374   1.469       .  S
O271       Cr285   2.003       .  S
O272       Cr285   1.962       .  S
O272        C273   1.260       .  A
C273        C457   1.481       .  S
O274       Cr283   1.967       .  S
O274        C282   1.256       .  A
O275       Cr283   2.028       .  S
O275        C276   1.271       .  A
C276        O277   1.259       .  A
C276        C447   1.481       .  S
O277       Cr284   1.961       .  S
O278       Cr284   2.011       .  S
O278        C279   1.268       .  A
C279        O280   1.260       .  A
C279        C657   1.477       .  S
O280       Cr285   1.977       .  S
O281       Cr285   2.011       .  S
O281        C282   1.263       .  A
C282        C577   1.479       .  S
Cr283       O286   1.773       .  S
Cr284       O286   1.775       .  S
Cr285       O286   1.766       .  S
O287       Cr305   1.956       .  S
O287        C295   1.254       .  A
O288       Cr305   2.014       .  S
O288        C289   1.269       .  A
C289        O290   1.260       .  A
C289        C497   1.479       .  S
O290       Cr306   1.972       .  S
O291       Cr306   2.005       .  S
O291        C292   1.268       .  A
C292        O293   1.265       .  A
C292        C557   1.487       .  S
O293       Cr307   1.995       .  S
O294       Cr307   2.021       .  S
O294        C295   1.265       .  A
C295        C677   1.474       .  S
O296       Cr305   2.020       .  S
O296        C304   1.268       .  A
O297       Cr305   1.973       .  S
O297        C298   1.258       .  A
C298        O299   1.266       .  A
C298        C367   1.485       .  S
O299       Cr306   2.016       .  S
O300       Cr306   1.991       .  S
O300        C301   1.263       .  A
C301        O302   1.265       .  A
C301        C397   1.465       .  S
O302       Cr307   1.997       .  S
O303       Cr307   1.975       .  S
O303        C304   1.260       .  A
C304        C507   1.479       .  S
Cr305       O308   1.770       .  S
Cr306       O308   1.773       .  S
Cr307       O308   1.771       .  S
O309       Cr327   2.020       .  S
O309        C317   1.268       .  A
O310       Cr327   1.966       .  S
O310        C311   1.257       .  A
C311        O312   1.266       .  A
C311        C354   1.482       .  S
O312       Cr328   2.016       .  S
O313       Cr328   1.995       .  S
O313        C314   1.264       .  A
C314        O315   1.265       .  A
C314        C377   1.468       .  S
O315       Cr329   1.998       .  S
O316       Cr329   1.986       .  S
O316        C317   1.262       .  A
C317        C647   1.483       .  S
O318       Cr327   1.957       .  S
O318        C326   1.255       .  A
O319       Cr327   2.017       .  S
O319        C320   1.270       .  A
C320        O321   1.261       .  A
C320        C637   1.484       .  S
O321       Cr328   1.978       .  S
O322       Cr328   2.003       .  S
O322        C323   1.267       .  A
C323        O324   1.262       .  A
C323        C467   1.482       .  S
O324       Cr329   1.985       .  S
O325       Cr329   2.013       .  S
O325        C326   1.265       .  A
C326        C727   1.472       .  S
Cr327       O330   1.770       .  S
Cr328       O330   1.779       .  S
Cr329       O330   1.769       .  S
O331       Cr349   2.005       .  S
O331        C339   1.265       .  A
O332       Cr349   1.951       .  S
O332        C333   1.258       .  A
C333        O334   1.267       .  A
C333        C697   1.462       .  S
O334       Cr350   2.011       .  S
O335       Cr350   1.986       .  S
O335        C336   1.261       .  A
C336        O337   1.261       .  A
C336        C827   1.474       .  S
O337       Cr351   1.989       .  S
O338       Cr351   1.983       .  S
O338        C339   1.260       .  A
C339        C477   1.480       .  S
O340       Cr349   1.970       .  S
O340        C348   1.258       .  A
O341       Cr349   1.989       .  S
O341        C342   1.263       .  A
C342        O343   1.261       .  A
C342        C357   1.470       .  S
O343       Cr350   1.987       .  S
O344       Cr350   2.017       .  S
O344        C345   1.268       .  A
C345        O346   1.260       .  A
C345        C407   1.466       .  S
O346       Cr351   1.969       .  S
O347       Cr351   1.989       .  S
O347        C348   1.263       .  A
C348        C707   1.460       .  S
Cr349       O352   1.766       .  S
Cr350       O352   1.777       .  S
Cr351       O352   1.761       .  S
C353        C354   1.406       .  A
C353        C358   1.392       .  A
C353        H359   1.083       .  S
C354        C355   1.409       .  A
C355        C356   1.404       .  A
C355        H360   1.083       .  S
C356        C357   1.404       .  A
C356        H361   1.083       .  S
C357        C358   1.401       .  A
C358        H362   1.084       .  S
C363        C364   1.406       .  A
C363        C368   1.403       .  A
C363        H369   1.083       .  S
C364        C365   1.407       .  A
C365        C366   1.396       .  A
C365        H370   1.083       .  S
C366        C367   1.405       .  A
C366        H371   1.083       .  S
C367        C368   1.408       .  A
C368        H372   1.083       .  S
C373        C374   1.405       .  A
C373        C378   1.398       .  A
C373        H379   1.084       .  S
C374        C375   1.402       .  A
C375        C376   1.402       .  A
C375        H380   1.084       .  S
C376        C377   1.406       .  A
C376        H381   1.083       .  S
C377        C378   1.401       .  A
C378        H382   1.084       .  S
C383        C384   1.408       .  A
C383        C388   1.410       .  A
C383        H389   1.083       .  S
C384        C385   1.402       .  A
C385        C386   1.390       .  A
C385        H390   1.084       .  S
C386        C387   1.403       .  A
C386        H391   1.084       .  S
C387        C388   1.407       .  A
C388        H392   1.083       .  S
C393        C394   1.406       .  A
C393        C398   1.402       .  A
C393        H399   1.083       .  S
C394        C395   1.404       .  A
C395        C396   1.395       .  A
C395        H400   1.084       .  S
C396        C397   1.402       .  A
C396        H401   1.084       .  S
C397        C398   1.403       .  A
C398        H402   1.083       .  S
C403        C404   1.403       .  A
C403        C408   1.397       .  A
C403        H409   1.083       .  S
C404        C405   1.405       .  A
C405        C406   1.396       .  A
C405        H410   1.084       .  S
C406        C407   1.402       .  A
C406        H411   1.084       .  S
C407        C408   1.403       .  A
C408        H412   1.083       .  S
C413        C414   1.402       .  A
C413        C418   1.389       .  A
C413        H419   1.084       .  S
C414        C415   1.407       .  A
C415        C416   1.410       .  A
C415        H420   1.083       .  S
C416        C417   1.408       .  A
C416        H421   1.083       .  S
C417        C418   1.402       .  A
C418        H422   1.084       .  S
C423        C424   1.404       .  A
C423        C428   1.399       .  A
C423        H429   1.085       .  S
C424        C425   1.405       .  A
C425        C426   1.399       .  A
C425        H430   1.082       .  S
C426        C427   1.404       .  A
C426        H431   1.085       .  S
C427        C428   1.405       .  A
C428        H432   1.082       .  S
C433        C434   1.405       .  A
C433        C438   1.401       .  A
C433        H439   1.083       .  S
C434        C435   1.407       .  A
C435        C436   1.399       .  A
C435        H440   1.083       .  S
C436        C437   1.403       .  A
C436        H441   1.083       .  S
C437        C438   1.406       .  A
C438        H442   1.083       .  S
C443        C444   1.407       .  A
C443        C448   1.407       .  A
C443        H449   1.083       .  S
C444       C1004   1.478   1_554  S
C444        C445   1.401       .  A
C445        C446   1.393       .  A
C445        H450   1.084       .  S
C446        C447   1.406       .  A
C446        H451   1.084       .  S
C447        C448   1.406       .  A
C448        H452   1.083       .  S
C453        C454   1.409       .  A
C453        C458   1.406       .  A
C453        H459   1.083       .  S
C454        C455   1.405       .  A
C455        C456   1.391       .  A
C455        H460   1.083       .  S
C456        C457   1.404       .  A
C456        H461   1.084       .  S
C457        C458   1.406       .  A
C458        H462   1.083       .  S
C463        C464   1.407       .  A
C463        C468   1.403       .  A
C463        H469   1.083       .  S
C464        C465   1.404       .  A
C465        C466   1.392       .  A
C465        H470   1.083       .  S
C466        C467   1.405       .  A
C466        H471   1.083       .  S
C467        C468   1.407       .  A
C468        H472   1.083       .  S
C473        C474   1.406       .  A
C473        C478   1.402       .  A
C473        H479   1.083       .  S
C474        C475   1.405       .  A
C475        C476   1.393       .  A
C475        H480   1.083       .  S
C476        C477   1.405       .  A
C476        H481   1.083       .  S
C477        C478   1.406       .  A
C478        H482   1.083       .  S
C483        C484   1.410       .  A
C483        C488   1.405       .  A
C483        H489   1.083       .  S
C484        C485   1.405       .  A
C485        C486   1.394       .  A
C485        H490   1.083       .  S
C486        C487   1.404       .  A
C486        H491   1.084       .  S
C487        C488   1.403       .  A
C488        H492   1.083       .  S
C493        C494   1.406       .  A
C493        C498   1.400       .  A
C493        H499   1.083       .  S
C494        C973   1.479   1_554  S
C494        C495   1.403       .  A
C495        C496   1.401       .  A
C495       H1332   1.083       .  S
C496        C497   1.406       .  A
C496        H501   1.083       .  S
C497        C498   1.404       .  A
C498        H502   1.083       .  S
H500       C1327   1.083       .  S
C503        C504   1.404       .  A
C503        C508   1.399       .  A
C503        H509   1.083       .  S
C504        C505   1.407       .  A
C505        C506   1.402       .  A
C505        H510   1.083       .  S
C506        C507   1.404       .  A
C506        H511   1.083       .  S
C507        C508   1.405       .  A
C508        H512   1.083       .  S
C513        C514   1.404       .  A
C513        C518   1.390       .  A
C513        H519   1.083       .  S
C514        C515   1.409       .  A
C515        C516   1.408       .  A
C515        H520   1.083       .  S
C516        C517   1.406       .  A
C516        H521   1.083       .  S
C517        C518   1.401       .  A
C518        H522   1.084       .  S
C523        C524   1.407       .  A
C523        C528   1.397       .  A
C523        H529   1.083       .  S
C524        C525   1.403       .  A
C525        C526   1.400       .  A
C525        H530   1.083       .  S
C526        C527   1.406       .  A
C526        H531   1.083       .  S
C527        C528   1.402       .  A
C528        H532   1.083       .  S
C533        C534   1.403       .  A
C533        C538   1.386       .  A
C533        H539   1.084       .  S
C534        C535   1.405       .  A
C535        C536   1.400       .  A
C535        H540   1.083       .  S
C536        C537   1.403       .  A
C536        H541   1.083       .  S
C537        C951   1.460       .  S
C537        C538   1.399       .  A
C538        H542   1.084       .  S
C543        C544   1.404       .  A
C543        C548   1.385       .  A
C543        H549   1.084       .  S
C544        C545   1.406       .  A
C545        C546   1.401       .  A
C545        H550   1.083       .  S
C546        C547   1.403       .  A
C546        H551   1.083       .  S
C547        C548   1.398       .  A
C548        H552   1.084       .  S
C553        C554   1.404       .  A
C553        C558   1.393       .  A
C553        H559   1.083       .  S
C554        C555   1.409       .  A
C555        C556   1.407       .  A
C555        H560   1.083       .  S
C556        C557   1.408       .  A
C556        H561   1.083       .  S
C557        C558   1.406       .  A
C558        H562   1.083       .  S
C563        C564   1.403       .  A
C563       C1400   1.395   1_565  A
C563        H569   1.084       .  S
C564        C565   1.406   1_565  A
C565       C1398   1.402       .  A
C565        H570   1.083       .  S
C566        C567   1.402   1_556  A
C566       C1397   1.402       .  A
C566        H571   1.084       .  S
C567        C568   1.402       .  A
C568       C1395   1.395   1_545  A
C568        H572   1.083       .  S
C573        C574   1.405   1_565  A
C573        C578   1.394       .  A
C573        H579   1.083   1_565  S
C574        C575   1.407       .  A
C575        C576   1.405   1_545  A
C575        H580   1.083       .  S
C576        C577   1.406       .  A
C576        H581   1.083       .  S
C577        C578   1.403       .  A
C578        H582   1.083       .  S
C583        C584   1.409       .  A
C583        C588   1.405       .  A
C583        H589   1.083       .  S
C584        C585   1.406       .  A
C585        C586   1.395       .  A
C585        H590   1.083       .  S
C586        C587   1.403       .  A
C586        H591   1.084       .  S
C587        C588   1.404       .  A
C588        H592   1.083       .  S
C593        C594   1.404       .  A
C593        C598   1.390       .  A
C593        H599   1.083       .  S
C594        C595   1.409       .  A
C595        C596   1.406       .  A
C595        H600   1.083       .  S
C596        C597   1.406       .  A
C596       H1433   1.083       .  S
C597        C938   1.479       .  S
C597        C598   1.404       .  A
C598        H602   1.084       .  S
H601       C1428   1.083   1_554  S
C603        C604   1.405       .  A
C603        C608   1.389       .  A
C603        H609   1.083       .  S
C604        C605   1.407       .  A
C605        C606   1.407       .  A
C605        H610   1.083       .  S
C606        C607   1.407       .  A
C606        H611   1.083       .  S
C607        C608   1.400       .  A
C608        H612   1.084       .  S
C613        C614   1.402       .  A
C613        C618   1.393       .  A
C613        H619   1.084       .  S
C614        C615   1.406       .  A
C615        C616   1.404       .  A
C615        H620   1.083       .  S
C616        C617   1.405       .  A
C616        H621   1.083       .  S
C617        C618   1.404       .  A
C618        H622   1.083       .  S
C623        C624   1.404       .  A
C623        C628   1.394       .  A
C623        H629   1.083       .  S
C624        C625   1.406       .  A
C625        C626   1.400       .  A
C625        H630   1.083       .  S
C626        C627   1.405       .  A
C626        H631   1.083       .  S
C627        C628   1.404       .  A
C628        H632   1.083       .  S
C633        C634   1.406       .  A
C633        C638   1.404       .  A
C633       H1471   1.083       .  S
C634        C916   1.486       .  S
C634        C635   1.406       .  A
C635        C636   1.401       .  A
C635        H640   1.083       .  S
C636        C637   1.405       .  A
C636        H641   1.083       .  S
C637        C638   1.407       .  A
C638        H642   1.083       .  S
H639       C1465   1.083   1_554  S
C643        C644   1.406       .  A
C643        C648   1.402       .  A
C643        H649   1.083       .  S
C644        C645   1.408       .  A
C645        C646   1.404       .  A
C645        H650   1.083       .  S
C646        C647   1.405       .  A
C646        H651   1.083       .  S
C647        C648   1.405       .  A
C648        H652   1.083       .  S
C653        C654   1.402       .  A
C653        C658   1.392       .  A
C653        H659   1.084       .  S
C654        C655   1.403       .  A
C655        C656   1.402       .  A
C655        H660   1.083       .  S
C656        C657   1.408       .  A
C656        H661   1.083       .  S
C657        C658   1.404       .  A
C658        H662   1.083       .  S
C663        C664   1.402   1_455  A
C663        C668   1.395       .  A
C663        H669   1.084       .  S
C664       C1497   1.402       .  A
C665        C666   1.401   1_655  A
C665       C1496   1.402   1_554  A
C665        H670   1.084       .  S
C666        C667   1.406       .  A
C666        H671   1.083       .  S
C667       C1500   1.403   1_554  A
C668       C1499   1.403       .  A
C668        H672   1.084       .  S
C673        C674   1.405       .  A
C673        C678   1.404   1_455  A
C673        H679   1.083       .  S
C674        C675   1.402   1_455  A
C675        C676   1.389       .  A
C675        H680   1.084       .  S
C676        C677   1.404       .  A
C676        H681   1.083       .  S
C677        C678   1.406       .  A
C678        H682   1.083       .  S
C683        C684   1.405       .  A
C683        C688   1.406       .  A
C683        H689   1.083       .  S
C684        C685   1.400       .  A
C685        C686   1.391       .  A
C685        H690   1.084       .  S
C686        C687   1.406       .  A
C686        H691   1.083       .  S
C687        C688   1.408       .  A
C688        H692   1.083       .  S
C693        C694   1.403       .  A
C693        C698   1.400       .  A
C693       H1531   1.083       .  S
C694        C885   1.459       .  S
C694        C695   1.400       .  A
C695        C696   1.384       .  A
C695        H700   1.084       .  S
C696        C697   1.401       .  A
C696        H701   1.084       .  S
C697        C698   1.405       .  A
C698        H702   1.083       .  S
H699       C1525   1.083       .  S
C703        C704   1.400       .  A
C703        C708   1.385       .  A
C703        H709   1.084       .  S
C704        C705   1.403       .  A
C705        C706   1.398       .  A
C705        H710   1.083       .  S
C706        C707   1.403       .  A
C706        H711   1.083       .  S
C707        C708   1.401       .  A
C708        H712   1.084       .  S
C713        C714   1.408       .  A
C713        C718   1.402       .  A
C713        H719   1.083       .  S
C714        C715   1.403       .  A
C715        C716   1.400       .  A
C715        H720   1.083       .  S
C716        C717   1.408       .  A
C716        H721   1.083       .  S
C717        C718   1.404       .  A
C718        H722   1.083       .  S
C723        C724   1.406       .  A
C723        C728   1.403   1_545  A
C723        H729   1.083       .  S
C724        C725   1.405   1_545  A
C725        C726   1.392       .  A
C725        H730   1.083   1_565  S
C726        C727   1.402       .  A
C726        H731   1.084       .  S
C727        C728   1.404       .  A
C728        H732   1.083       .  S
C733        C738   1.401       .  A
C733       C1566   1.401   1_554  A
C733        H739   1.083       .  S
C734        C735   1.404       .  A
C734       C1565   1.401       .  A
C735        C736   1.397   1_545  A
C735        H740   1.084       .  S
C736       C1569   1.401       .  A
C736        H741   1.083       .  S
C737        C738   1.406   1_565  A
C737       C1568   1.401   1_554  A
C738        H742   1.084       .  S
C743        C744   1.409       .  A
C743        C748   1.407       .  A
C743        H749   1.083       .  S
C744        C745   1.404       .  A
C745        C746   1.391       .  A
C745        H750   1.083       .  S
C746        C747   1.406       .  A
C746        H751   1.084       .  S
C747        C872   1.484   1_554  S
C747        C748   1.406       .  A
C748        H752   1.083       .  S
C753        C754   1.407       .  A
C753        C758   1.404       .  A
C753        H759   1.083       .  S
C754        C755   1.407       .  A
C755        C756   1.392       .  A
C755        H760   1.083       .  S
C756        C757   1.399       .  A
C756        H761   1.084       .  S
C757        C758   1.404       .  A
C758        H762   1.083       .  S
C763        C764   1.404       .  A
C763        C768   1.393       .  A
C763        H769   1.083       .  S
C764        C765   1.408       .  A
C765        C766   1.406       .  A
C765        H770   1.084       .  S
C766        C767   1.405       .  A
C766        H771   1.083       .  S
C767        C768   1.403       .  A
C768        H772   1.084       .  S
C773        C774   1.408       .  A
C773        C778   1.399   1_655  A
C773        H779   1.083       .  S
C774        C775   1.404       .  A
C775        C776   1.399   1_655  A
C775        H780   1.083       .  S
C776        C777   1.406       .  A
C776        H781   1.083       .  S
C777        C778   1.402       .  A
C778        H782   1.083       .  S
C783        C788   1.396   1_655  A
C783       C1616   1.404       .  A
C783        H789   1.084       .  S
C784        C785   1.403   1_655  A
C784       C1615   1.404   1_554  A
C785        C786   1.398       .  A
C785        H790   1.084       .  S
C786       C1619   1.404   1_554  A
C786        H791   1.083       .  S
C787        C788   1.402       .  A
C787       C1618   1.404       .  A
C788        H792   1.084       .  S
C793        C794   1.403       .  A
C793        C798   1.403       .  A
C793        H799   1.083       .  S
C794        C795   1.403       .  A
C795        C796   1.394       .  A
C795        H800   1.084       .  S
C796        C797   1.406       .  A
C796        H801   1.083       .  S
C797        C798   1.409       .  A
C798        H802   1.083       .  S
C803        C804   1.404       .  A
C803        C808   1.400       .  A
C803       H1641   1.083       .  S
C804        C841   1.459   1_554  S
C804        C805   1.398       .  A
C805        C806   1.385       .  A
C805        H810   1.084       .  S
C806        C807   1.404       .  A
C806        H811   1.084       .  S
C807        C808   1.404       .  A
C808        H812   1.083       .  S
H809       C1635   1.083       .  S
C813        C814   1.401       .  A
C813        C818   1.387       .  A
C813        H819   1.084       .  S
C814        C815   1.405       .  A
C815        C816   1.401       .  A
C815        H820   1.083       .  S
C816        C817   1.404       .  A
C816        H821   1.083       .  S
C817        C818   1.401       .  A
C818        H822   1.084       .  S
C823        C824   1.401       .  A
C823        C828   1.395       .  A
C823        H829   1.083       .  S
C824        C825   1.406       .  A
C825        C826   1.398       .  A
C825        H830   1.083       .  S
C826        C827   1.403       .  A
C826        H831   1.083       .  S
C827        C828   1.406       .  A
C828        H832   1.083       .  S
O833       Cr851   1.967       .  S
O833        C841   1.258       .  A
O834       Cr851   1.991       .  S
O834        C835   1.263       .  A
C835        O836   1.262       .  A
C835       C1626   1.472       .  S
O836       Cr852   1.989       .  S
O837       Cr852   2.016       .  S
O837        C838   1.267       .  A
C838        O839   1.259       .  A
C838       C1619   1.468       .  S
O839       Cr853   1.970       .  S
O840       Cr853   1.996       .  S
O840        C841   1.266       .  A
O842       Cr851   2.004       .  S
O842        C850   1.262       .  A
O843       Cr851   1.957       .  S
O843        C844   1.260       .  A
C844        O845   1.268       .  A
C844       C1646   1.466       .  S
O845       Cr852   2.014       .  S
O846       Cr852   1.987       .  S
O846        C847   1.262       .  A
C847        O848   1.263       .  A
C847       C1609   1.476       .  S
O848       Cr853   1.996       .  S
O849       Cr853   1.981       .  S
O849        C850   1.259       .  A
C850       C1656   1.471       .  S
Cr851       O854   1.770       .  S
Cr852       O854   1.777       .  S
Cr853       O854   1.760       .  S
O855       Cr873   1.970       .  S
O855        C863   1.255       .  A
O856       Cr873   2.025       .  S
O856        C857   1.272       .  A
C857        O858   1.260       .  A
C857       C1586   1.481       .  S
O858       Cr874   1.958       .  S
O859       Cr874   2.007       .  S
O859        C860   1.267       .  A
C860        O861   1.263       .  A
C860       C1556   1.478       .  S
O861       Cr875   1.985       .  S
O862       Cr875   2.017       .  S
O862        C863   1.263       .  A
C863       C1596   1.480       .  S
O864       Cr873   2.031       .  S
O864        C872   1.272       .  A
O865       Cr873   1.970       .  S
O865        C866   1.256       .  A
C866        O867   1.264       .  A
C866       C1629   1.483       .  S
O867       Cr874   2.011       .  S
O868       Cr874   1.990       .  S
O868        C869   1.263       .  A
C869        O870   1.266       .  A
C869       C1566   1.466       .  S
O870       Cr875   2.004       .  S
O871       Cr875   1.954       .  S
O871        C872   1.259       .  A
Cr873       O876   1.770       .  S
Cr874       O876   1.772       .  S
Cr875       O876   1.769       .  S
O877       Cr895   1.973       .  S
O877        C885   1.259       .  A
O878       Cr895   1.993       .  S
O878        C879   1.264       .  A
C879        O880   1.261       .  A
C879       C1516   1.472       .  S
O880       Cr896   1.986       .  S
O881       Cr896   2.023       .  S
O881        C882   1.270       .  A
C882        O883   1.261       .  A
C882       C1499   1.472       .  S
O883       Cr897   1.971       .  S
O884       Cr897   1.989       .  S
O884        C885   1.264       .  A
O886       Cr895   2.012       .  S
O886        C894   1.265       .  A
O887       Cr895   1.954       .  S
O887        C888   1.259       .  A
C888        O889   1.266       .  A
C888       C1536   1.458       .  S
O889       Cr896   2.007       .  S
O890       Cr896   1.989       .  S
O890        C891   1.259       .  A
C891        O892   1.261       .  A
C891       C1506   1.470       .  S
O892       Cr897   1.990       .  S
O893       Cr897   1.993       .  S
O893        C894   1.264       .  A
C894       C1546   1.483       .  S
Cr895       O898   1.767       .  S
Cr896       O898   1.775       .  S
Cr897       O898   1.757       .  S
O899       Cr917   1.955       .  S
O899        C907   1.254       .  A
O900       Cr917   2.017       .  S
O900        C901   1.270       .  A
C901        O902   1.261       .  A
C901       C1476   1.487       .  S
O902       Cr918   1.978       .  S
O903       Cr918   2.007       .  S
O903        C904   1.268       .  A
C904        O905   1.261       .  A
C904       C1456   1.478   1_565  S
O905       Cr919   1.977       .  S
O906       Cr919   2.014       .  S
O906        C907   1.265       .  A
C907       C1486   1.470       .  S
O908       Cr917   2.022       .  S
O908        C916   1.269       .  A
O909       Cr917   1.960       .  S
O909        C910   1.256       .  A
C910        O911   1.267       .  A
C910       C1519   1.483       .  S
O911       Cr918   2.024       .  S
O912       Cr918   1.995       .  S
O912        C913   1.264       .  A
C913        O914   1.264       .  A
C913       C1569   1.465       .  S
O914       Cr919   1.995       .  S
O915       Cr919   1.982       .  S
O915        C916   1.261       .  A
Cr917       O920   1.768       .  S
Cr918       O920   1.779       .  S
Cr919       O920   1.769       .  S
O921       Cr939   1.969       .  S
O921        C929   1.255       .  A
O922       Cr939   2.024       .  S
O922        C923   1.270       .  A
C923        O924   1.260       .  A
C923       C1436   1.479       .  S
O924       Cr940   1.959       .  S
O925       Cr940   2.013       .  S
O925        C926   1.269       .  A
C926        O927   1.263       .  A
C926       C1406   1.482       .  S
O927       Cr941   1.986       .  S
O928       Cr941   2.013       .  S
O928        C929   1.262       .  A
C929       C1446   1.475       .  S
O930       Cr939   2.031       .  S
O930        C938   1.272       .  A
O931       Cr939   1.972       .  S
O931        C932   1.258       .  A
C932        O933   1.266       .  A
C932       C1416   1.487       .  S
O933       Cr940   2.018       .  S
O934       Cr940   1.991       .  S
O934        C935   1.264       .  A
C935        O936   1.266       .  A
C935       C1399   1.464       .  S
O936       Cr941   1.999       .  S
O937       Cr941   1.953       .  S
O937        C938   1.258       .  A
Cr939       O942   1.771       .  S
Cr940       O942   1.771       .  S
Cr941       O942   1.768       .  S
O943       Cr961   1.972       .  S
O943        C951   1.258       .  A
O944       Cr961   1.992       .  S
O944        C945   1.263       .  A
C945        O946   1.262       .  A
C945       C1419   1.477       .  S
O946       Cr962   1.995       .  S
O947       Cr962   2.020       .  S
O947        C948   1.269       .  A
C948        O949   1.259       .  A
C948       C1616   1.469       .  S
O949       Cr963   1.966       .  S
O950       Cr963   1.993       .  S
O950        C951   1.264       .  A
O952       Cr961   2.008       .  S
O952        C960   1.266       .  A
O953       Cr961   1.948       .  S
O953        C954   1.258       .  A
C954        O955   1.269       .  A
C954       C1376   1.467       .  S
O955       Cr962   2.016       .  S
O956       Cr962   1.989       .  S
O956        C957   1.262       .  A
C957        O958   1.261       .  A
C957       C1356   1.477   1_655  S
O958       Cr963   1.991       .  S
O959       Cr963   1.990       .  S
O959        C960   1.261       .  A
C960       C1386   1.486       .  S
Cr961       O964   1.768       .  S
Cr962       O964   1.778       .  S
Cr963       O964   1.762       .  S
O965       Cr983   2.026       .  S
O965        C973   1.271       .  A
O966       Cr983   1.973       .  S
O966        C967   1.259       .  A
C967        O968   1.265       .  A
C967       C1316   1.485       .  S
O968       Cr984   2.013       .  S
O969       Cr984   1.991       .  S
O969        C970   1.262       .  A
C970        O971   1.264       .  A
C970       C1496   1.463       .  S
O971       Cr985   1.995       .  S
O972       Cr985   1.972       .  S
O972        C973   1.260       .  A
O974       Cr983   1.963       .  S
O974        C982   1.254       .  A
O975       Cr983   2.015       .  S
O975        C976   1.270       .  A
C976        O977   1.259       .  A
C976       C1336   1.479       .  S
O977       Cr984   1.968       .  S
O978       Cr984   2.006       .  S
O978        C979   1.269       .  A
C979        O980   1.263       .  A
C979       C1306   1.480   1_655  S
O980       Cr985   1.983       .  S
O981       Cr985   2.023       .  S
O981        C982   1.264       .  A
C982       C1346   1.481       .  S
Cr983       O986   1.766       .  S
Cr984       O986   1.776       .  S
Cr985       O986   1.771       .  S
O987      Cr1005   2.005       .  S
O987        C995   1.265       .  A
O988      Cr1005   1.963       .  S
O988        C989   1.262       .  A
C989        O990   1.272       .  A
C989       C1286   1.485       .  S
O990      Cr1006   2.024       .  S
O991      Cr1006   1.984       .  S
O991        C992   1.260       .  A
C992        O993   1.264       .  A
C992       C1266   1.482   1_565  S
O993      Cr1007   2.002       .  S
O994      Cr1007   1.985       .  S
O994        C995   1.260       .  A
C995       C1296   1.482       .  S
O996      Cr1005   1.988       .  S
O996       C1004   1.261       .  A
O997      Cr1005   1.984       .  S
O997        C998   1.260       .  A
C998        O999   1.262       .  A
C998       C1319   1.476       .  S
O999      Cr1006   1.997       .  S
O1000     Cr1006   2.025       .  S
O1000      C1001   1.270       .  A
C1001      O1002   1.260       .  A
C1001      C1396   1.472       .  S
O1002     Cr1007   1.966       .  S
O1003     Cr1007   2.012       .  S
O1003      C1004   1.267       .  A
Cr1005     O1008   1.766       .  S
Cr1006     O1008   1.779       .  S
Cr1007     O1008   1.765       .  S
O1009     Cr1027   1.986       .  S
O1009      C1017   1.259       .  A
O1010     Cr1027   1.985       .  S
O1010      C1011   1.262       .  A
C1011      O1012   1.262       .  A
C1011      C1246   1.477       .  S
O1012     Cr1028   1.997       .  S
O1013     Cr1028   2.027       .  S
O1013      C1014   1.272       .  A
C1014      O1015   1.261       .  A
C1014      C1256   1.474       .  S
O1015     Cr1029   1.970       .  S
O1016     Cr1029   2.009       .  S
O1016      C1017   1.266       .  A
C1017      C1589   1.469       .  S
O1018     Cr1027   2.005       .  S
O1018      C1026   1.265       .  A
O1019     Cr1027   1.965       .  S
O1019      C1020   1.261       .  A
C1020      O1021   1.270       .  A
C1020      C1576   1.484       .  S
O1021     Cr1028   2.024       .  S
O1022     Cr1028   1.991       .  S
O1022      C1023   1.261       .  A
C1023      O1024   1.263       .  A
C1023      C1449   1.475       .  S
O1024     Cr1029   2.000       .  S
O1025     Cr1029   1.983       .  S
O1025      C1026   1.261       .  A
C1026      C1459   1.477       .  S
Cr1027     O1030   1.762       .  S
Cr1028     O1030   1.774       .  S
Cr1029     O1030   1.762       .  S
O1031     Cr1049   2.009       .  S
O1031      C1039   1.264       .  A
O1032     Cr1049   1.948       .  S
O1032      C1033   1.259       .  A
C1033      O1034   1.270       .  A
C1033      C1639   1.465       .  S
O1034     Cr1050   2.015       .  S
O1035     Cr1050   1.994       .  S
O1035      C1036   1.262       .  A
C1036      O1037   1.261       .  A
C1036      C1549   1.484       .  S
O1037     Cr1051   1.994       .  S
O1038     Cr1051   1.983       .  S
O1038      C1039   1.260       .  A
C1039      C1359   1.476       .  S
O1040     Cr1049   1.977       .  S
O1040      C1048   1.260       .  A
O1041     Cr1049   1.985       .  S
O1041      C1042   1.261       .  A
C1042      O1043   1.262       .  A
C1042      C1249   1.478       .  S
O1043     Cr1050   1.998       .  S
O1044     Cr1050   2.020       .  S
O1044      C1045   1.270       .  A
C1045      O1046   1.259       .  A
C1045      C1236   1.468       .  S
O1046     Cr1051   1.962       .  S
O1047     Cr1051   1.994       .  S
O1047      C1048   1.264       .  A
C1048      C1649   1.464       .  S
Cr1049     O1052   1.770       .  S
Cr1050     O1052   1.780       .  S
Cr1051     O1052   1.760       .  S
O1053     Cr1071   2.008       .  S
O1053      C1061   1.265       .  A
O1054     Cr1071   1.952       .  S
O1054      C1055   1.259       .  A
C1055      O1056   1.268       .  A
C1055      C1366   1.466       .  S
O1056     Cr1072   2.014       .  S
O1057     Cr1072   1.999       .  S
O1057      C1058   1.261       .  A
C1058      O1059   1.261       .  A
C1058      C1349   1.475       .  S
O1059     Cr1073   1.992       .  S
O1060     Cr1073   1.987       .  S
O1060      C1061   1.263       .  A
C1061      C1606   1.480       .  S
O1062     Cr1071   1.973       .  S
O1062      C1070   1.259       .  A
O1063     Cr1071   1.991       .  S
O1063      C1064   1.264       .  A
C1064      O1065   1.263       .  A
C1064      C1216   1.480       .  S
O1065     Cr1072   1.997       .  S
O1066     Cr1072   2.030       .  S
O1066      C1067   1.271       .  A
C1067      O1068   1.260       .  A
C1067      C1226   1.473       .  S
O1068     Cr1073   1.965       .  S
O1069     Cr1073   1.991       .  S
O1069      C1070   1.263       .  A
C1070      C1379   1.458       .  S
Cr1071     O1074   1.767       .  S
Cr1072     O1074   1.777       .  S
Cr1073     O1074   1.758       .  S
O1075     Cr1093   1.991       .  S
O1075      C1083   1.261       .  A
O1076     Cr1093   1.984       .  S
O1076      C1077   1.262       .  A
C1077      O1078   1.263       .  A
C1077      C1219   1.479       .  S
O1078     Cr1094   2.001       .  S
O1079     Cr1094   2.026       .  S
O1079      C1080   1.272       .  A
C1080      O1081   1.262       .  A
C1080      C1259   1.475       .  S
O1081     Cr1095   1.971       .  S
O1082     Cr1095   2.003       .  S
O1082      C1083   1.266       .  A
C1083      C1439   1.474       .  S
O1084     Cr1093   2.013       .  S
O1084      C1092   1.265       .  A
O1085     Cr1093   1.965       .  S
O1085      C1086   1.262       .  A
C1086      O1087   1.270       .  A
C1086      C1426   1.483       .  S
O1087     Cr1094   2.019       .  S
O1088     Cr1094   1.994       .  S
O1088      C1089   1.260       .  A
C1089      O1090   1.262       .  A
C1089      C1599   1.475       .  S
O1090     Cr1095   1.997       .  S
O1091     Cr1095   1.989       .  S
O1091      C1092   1.262       .  A
C1092      C1269   1.477       .  S
Cr1093     O1096   1.764       .  S
Cr1094     O1096   1.775       .  S
Cr1095     O1096   1.761       .  S
O1097     Cr1115   2.025       .  S
O1097      C1105   1.270       .  A
O1098     Cr1115   1.967       .  S
O1098      C1099   1.255       .  A
C1099      O1100   1.266       .  A
C1099      C1196   1.486       .  S
O1100     Cr1116   2.023       .  S
O1101     Cr1116   1.996       .  S
O1101      C1102   1.265       .  A
C1102      O1103   1.266       .  A
C1102      C1206   1.469       .  S
O1103     Cr1117   2.003       .  S
O1104     Cr1117   1.962       .  S
O1104      C1105   1.260       .  A
C1105      C1289   1.481       .  S
O1106     Cr1115   1.967       .  S
O1106      C1114   1.256       .  A
O1107     Cr1115   2.028       .  S
O1107      C1108   1.271       .  A
C1108      O1109   1.259       .  A
C1108      C1279   1.481       .  S
O1109     Cr1116   1.961       .  S
O1110     Cr1116   2.011       .  S
O1110      C1111   1.268       .  A
C1111      O1112   1.260       .  A
C1111      C1489   1.477       .  S
O1112     Cr1117   1.977       .  S
O1113     Cr1117   2.011       .  S
O1113      C1114   1.263       .  A
C1114      C1409   1.479       .  S
Cr1115     O1118   1.773       .  S
Cr1116     O1118   1.775       .  S
Cr1117     O1118   1.766       .  S
O1119     Cr1137   1.956       .  S
O1119      C1127   1.254       .  A
O1120     Cr1137   2.014       .  S
O1120      C1121   1.269       .  A
C1121      O1122   1.260       .  A
C1121      C1329   1.479       .  S
O1122     Cr1138   1.972       .  S
O1123     Cr1138   2.005       .  S
O1123      C1124   1.268       .  A
C1124      O1125   1.265       .  A
C1124      C1389   1.487       .  S
O1125     Cr1139   1.995       .  S
O1126     Cr1139   2.021       .  S
O1126      C1127   1.265       .  A
C1127      C1509   1.474       .  S
O1128     Cr1137   2.020       .  S
O1128      C1136   1.268       .  A
O1129     Cr1137   1.973       .  S
O1129      C1130   1.258       .  A
C1130      O1131   1.266       .  A
C1130      C1199   1.485       .  S
O1131     Cr1138   2.016       .  S
O1132     Cr1138   1.991       .  S
O1132      C1133   1.263       .  A
C1133      O1134   1.265       .  A
C1133      C1229   1.465       .  S
O1134     Cr1139   1.997       .  S
O1135     Cr1139   1.975       .  S
O1135      C1136   1.260       .  A
C1136      C1339   1.479       .  S
Cr1137     O1140   1.770       .  S
Cr1138     O1140   1.773       .  S
Cr1139     O1140   1.771       .  S
O1141     Cr1159   2.020       .  S
O1141      C1149   1.268       .  A
O1142     Cr1159   1.966       .  S
O1142      C1143   1.257       .  A
C1143      O1144   1.266       .  A
C1143      C1186   1.482       .  S
O1144     Cr1160   2.016       .  S
O1145     Cr1160   1.995       .  S
O1145      C1146   1.264       .  A
C1146      O1147   1.265       .  A
C1146      C1209   1.468       .  S
O1147     Cr1161   1.998       .  S
O1148     Cr1161   1.986       .  S
O1148      C1149   1.262       .  A
C1149      C1479   1.483       .  S
O1150     Cr1159   1.957       .  S
O1150      C1158   1.255       .  A
O1151     Cr1159   2.017       .  S
O1151      C1152   1.270       .  A
C1152      O1153   1.261       .  A
C1152      C1469   1.484       .  S
O1153     Cr1160   1.978       .  S
O1154     Cr1160   2.003       .  S
O1154      C1155   1.267       .  A
C1155      O1156   1.262       .  A
C1155      C1299   1.482       .  S
O1156     Cr1161   1.985       .  S
O1157     Cr1161   2.013       .  S
O1157      C1158   1.265       .  A
C1158      C1559   1.472       .  S
Cr1159     O1162   1.770       .  S
Cr1160     O1162   1.779       .  S
Cr1161     O1162   1.769       .  S
O1163     Cr1181   2.005       .  S
O1163      C1171   1.265       .  A
O1164     Cr1181   1.951       .  S
O1164      C1165   1.258       .  A
C1165      O1166   1.267       .  A
C1165      C1529   1.462       .  S
O1166     Cr1182   2.011       .  S
O1167     Cr1182   1.986       .  S
O1167      C1168   1.261       .  A
C1168      O1169   1.261       .  A
C1168      C1659   1.474       .  S
O1169     Cr1183   1.989       .  S
O1170     Cr1183   1.983       .  S
O1170      C1171   1.260       .  A
C1171      C1309   1.480       .  S
O1172     Cr1181   1.970       .  S
O1172      C1180   1.258       .  A
O1173     Cr1181   1.989       .  S
O1173      C1174   1.263       .  A
C1174      O1175   1.261       .  A
C1174      C1189   1.470       .  S
O1175     Cr1182   1.987       .  S
O1176     Cr1182   2.017       .  S
O1176      C1177   1.268       .  A
C1177      O1178   1.260       .  A
C1177      C1239   1.466       .  S
O1178     Cr1183   1.969       .  S
O1179     Cr1183   1.989       .  S
O1179      C1180   1.263       .  A
C1180      C1539   1.460       .  S
Cr1181     O1184   1.766       .  S
Cr1182     O1184   1.777       .  S
Cr1183     O1184   1.761       .  S
C1185      C1186   1.406       .  A
C1185      C1190   1.392       .  A
C1185      H1191   1.083       .  S
C1186      C1187   1.409       .  A
C1187      C1188   1.404       .  A
C1187      H1192   1.083       .  S
C1188      C1189   1.404       .  A
C1188      H1193   1.083       .  S
C1189      C1190   1.401       .  A
C1190      H1194   1.084       .  S
C1195      C1196   1.406       .  A
C1195      C1200   1.403       .  A
C1195      H1201   1.083       .  S
C1196      C1197   1.407       .  A
C1197      C1198   1.396       .  A
C1197      H1202   1.083       .  S
C1198      C1199   1.405       .  A
C1198      H1203   1.083       .  S
C1199      C1200   1.408       .  A
C1200      H1204   1.083       .  S
C1205      C1206   1.405       .  A
C1205      C1210   1.398       .  A
C1205      H1211   1.084       .  S
C1206      C1207   1.402       .  A
C1207      C1208   1.402       .  A
C1207      H1212   1.084       .  S
C1208      C1209   1.406       .  A
C1208      H1213   1.083       .  S
C1209      C1210   1.401       .  A
C1210      H1214   1.084       .  S
C1215      C1216   1.408       .  A
C1215      C1220   1.410       .  A
C1215      H1221   1.083       .  S
C1216      C1217   1.402       .  A
C1217      C1218   1.390       .  A
C1217      H1222   1.084       .  S
C1218      C1219   1.403       .  A
C1218      H1223   1.084       .  S
C1219      C1220   1.407       .  A
C1220      H1224   1.083       .  S
C1225      C1226   1.406       .  A
C1225      C1230   1.402       .  A
C1225      H1231   1.083       .  S
C1226      C1227   1.404       .  A
C1227      C1228   1.395       .  A
C1227      H1232   1.084       .  S
C1228      C1229   1.402       .  A
C1228      H1233   1.084       .  S
C1229      C1230   1.403       .  A
C1230      H1234   1.083       .  S
C1235      C1236   1.403       .  A
C1235      C1240   1.397       .  A
C1235      H1241   1.083       .  S
C1236      C1237   1.405       .  A
C1237      C1238   1.396       .  A
C1237      H1242   1.084       .  S
C1238      C1239   1.402       .  A
C1238      H1243   1.084       .  S
C1239      C1240   1.403       .  A
C1240      H1244   1.083       .  S
C1245      C1246   1.402       .  A
C1245      C1250   1.389       .  A
C1245      H1251   1.084       .  S
C1246      C1247   1.407       .  A
C1247      C1248   1.410       .  A
C1247      H1252   1.083       .  S
C1248      C1249   1.408       .  A
C1248      H1253   1.083       .  S
C1249      C1250   1.402       .  A
C1250      H1254   1.084       .  S
C1255      C1256   1.404       .  A
C1255      C1260   1.399       .  A
C1255      H1261   1.085       .  S
C1256      C1257   1.405       .  A
C1257      C1258   1.399       .  A
C1257      H1262   1.082       .  S
C1258      C1259   1.404       .  A
C1258      H1263   1.085       .  S
C1259      C1260   1.405       .  A
C1260      H1264   1.082       .  S
C1265      C1266   1.405       .  A
C1265      C1270   1.401       .  A
C1265      H1271   1.083       .  S
C1266      C1267   1.407       .  A
C1267      C1268   1.399       .  A
C1267      H1272   1.083       .  S
C1268      C1269   1.403       .  A
C1268      H1273   1.083       .  S
C1269      C1270   1.406       .  A
C1270      H1274   1.083       .  S
C1275      C1276   1.407       .  A
C1275      C1280   1.407       .  A
C1275      H1281   1.083       .  S
C1276      C1277   1.401       .  A
C1277      C1278   1.393       .  A
C1277      H1282   1.084       .  S
C1278      C1279   1.406       .  A
C1278      H1283   1.084       .  S
C1279      C1280   1.406       .  A
C1280      H1284   1.083       .  S
C1285      C1286   1.409       .  A
C1285      C1290   1.406       .  A
C1285      H1291   1.083       .  S
C1286      C1287   1.405       .  A
C1287      C1288   1.391       .  A
C1287      H1292   1.083       .  S
C1288      C1289   1.404       .  A
C1288      H1293   1.084       .  S
C1289      C1290   1.406       .  A
C1290      H1294   1.083       .  S
C1295      C1296   1.407       .  A
C1295      C1300   1.403       .  A
C1295      H1301   1.083       .  S
C1296      C1297   1.404       .  A
C1297      C1298   1.392       .  A
C1297      H1302   1.083       .  S
C1298      C1299   1.405       .  A
C1298      H1303   1.083       .  S
C1299      C1300   1.407       .  A
C1300      H1304   1.083       .  S
C1305      C1306   1.406       .  A
C1305      C1310   1.402       .  A
C1305      H1311   1.083       .  S
C1306      C1307   1.405       .  A
C1307      C1308   1.393       .  A
C1307      H1312   1.083       .  S
C1308      C1309   1.405       .  A
C1308      H1313   1.083       .  S
C1309      C1310   1.406       .  A
C1310      H1314   1.083       .  S
C1315      C1316   1.410       .  A
C1315      C1320   1.405       .  A
C1315      H1321   1.083       .  S
C1316      C1317   1.405       .  A
C1317      C1318   1.394       .  A
C1317      H1322   1.083       .  S
C1318      C1319   1.404       .  A
C1318      H1323   1.084       .  S
C1319      C1320   1.403       .  A
C1320      H1324   1.083       .  S
C1325      C1326   1.406       .  A
C1325      C1330   1.400       .  A
C1325      H1331   1.083       .  S
C1326      C1327   1.403       .  A
C1327      C1328   1.401       .  A
C1328      C1329   1.406       .  A
C1328      H1333   1.083       .  S
C1329      C1330   1.404       .  A
C1330      H1334   1.083       .  S
C1335      C1336   1.404       .  A
C1335      C1340   1.399       .  A
C1335      H1341   1.083       .  S
C1336      C1337   1.407       .  A
C1337      C1338   1.402       .  A
C1337      H1342   1.083       .  S
C1338      C1339   1.404       .  A
C1338      H1343   1.083       .  S
C1339      C1340   1.405       .  A
C1340      H1344   1.083       .  S
C1345      C1346   1.404       .  A
C1345      C1350   1.390       .  A
C1345      H1351   1.083       .  S
C1346      C1347   1.409       .  A
C1347      C1348   1.408       .  A
C1347      H1352   1.083       .  S
C1348      C1349   1.406       .  A
C1348      H1353   1.083       .  S
C1349      C1350   1.401       .  A
C1350      H1354   1.084       .  S
C1355      C1356   1.407       .  A
C1355      C1360   1.397       .  A
C1355      H1361   1.083       .  S
C1356      C1357   1.403       .  A
C1357      C1358   1.400       .  A
C1357      H1362   1.083       .  S
C1358      C1359   1.406       .  A
C1358      H1363   1.083       .  S
C1359      C1360   1.402       .  A
C1360      H1364   1.083       .  S
C1365      C1366   1.403       .  A
C1365      C1370   1.386       .  A
C1365      H1371   1.084       .  S
C1366      C1367   1.405       .  A
C1367      C1368   1.400       .  A
C1367      H1372   1.083       .  S
C1368      C1369   1.403       .  A
C1368      H1373   1.083       .  S
C1369      C1370   1.399       .  A
C1370      H1374   1.084       .  S
C1375      C1376   1.404       .  A
C1375      C1380   1.385       .  A
C1375      H1381   1.084       .  S
C1376      C1377   1.406       .  A
C1377      C1378   1.401       .  A
C1377      H1382   1.083       .  S
C1378      C1379   1.403       .  A
C1378      H1383   1.083       .  S
C1379      C1380   1.398       .  A
C1380      H1384   1.084       .  S
C1385      C1386   1.404       .  A
C1385      C1390   1.393       .  A
C1385      H1391   1.083       .  S
C1386      C1387   1.409       .  A
C1387      C1388   1.407       .  A
C1387      H1392   1.083       .  S
C1388      C1389   1.408       .  A
C1388      H1393   1.083       .  S
C1389      C1390   1.406       .  A
C1390      H1394   1.083       .  S
C1395      C1396   1.403   1_554  A
C1395      H1401   1.084       .  S
C1396      C1397   1.406   1_565  A
C1397      H1402   1.083       .  S
C1398      C1399   1.402       .  A
C1398      H1403   1.084       .  S
C1399      C1400   1.402       .  A
C1400      H1404   1.083       .  S
C1405      C1406   1.405   1_565  A
C1405      C1410   1.394       .  A
C1405      H1411   1.083   1_565  S
C1406      C1407   1.407       .  A
C1407      C1408   1.405   1_545  A
C1407      H1412   1.083       .  S
C1408      C1409   1.406       .  A
C1408      H1413   1.083       .  S
C1409      C1410   1.403       .  A
C1410      H1414   1.083       .  S
C1415      C1416   1.409       .  A
C1415      C1420   1.405       .  A
C1415      H1421   1.083       .  S
C1416      C1417   1.406       .  A
C1417      C1418   1.395       .  A
C1417      H1422   1.083       .  S
C1418      C1419   1.403       .  A
C1418      H1423   1.084       .  S
C1419      C1420   1.404       .  A
C1420      H1424   1.083       .  S
C1425      C1426   1.404       .  A
C1425      C1430   1.390       .  A
C1425      H1431   1.083       .  S
C1426      C1427   1.409       .  A
C1427      C1428   1.406       .  A
C1427      H1432   1.083       .  S
C1428      C1429   1.406       .  A
C1429      C1430   1.404       .  A
C1430      H1434   1.084       .  S
C1435      C1436   1.405       .  A
C1435      C1440   1.389       .  A
C1435      H1441   1.083       .  S
C1436      C1437   1.407       .  A
C1437      C1438   1.407       .  A
C1437      H1442   1.083       .  S
C1438      C1439   1.407       .  A
C1438      H1443   1.083       .  S
C1439      C1440   1.400       .  A
C1440      H1444   1.084       .  S
C1445      C1446   1.402       .  A
C1445      C1450   1.393       .  A
C1445      H1451   1.084       .  S
C1446      C1447   1.406       .  A
C1447      C1448   1.404       .  A
C1447      H1452   1.083       .  S
C1448      C1449   1.405       .  A
C1448      H1453   1.083       .  S
C1449      C1450   1.404       .  A
C1450      H1454   1.083       .  S
C1455      C1456   1.404       .  A
C1455      C1460   1.394       .  A
C1455      H1461   1.083       .  S
C1456      C1457   1.406       .  A
C1457      C1458   1.400       .  A
C1457      H1462   1.083       .  S
C1458      C1459   1.405       .  A
C1458      H1463   1.083       .  S
C1459      C1460   1.404       .  A
C1460      H1464   1.083       .  S
C1465      C1466   1.406       .  A
C1465      C1470   1.404       .  A
C1466      C1467   1.406       .  A
C1467      C1468   1.401       .  A
C1467      H1472   1.083       .  S
C1468      C1469   1.405       .  A
C1468      H1473   1.083       .  S
C1469      C1470   1.407       .  A
C1470      H1474   1.083       .  S
C1475      C1476   1.406       .  A
C1475      C1480   1.402       .  A
C1475      H1481   1.083       .  S
C1476      C1477   1.408       .  A
C1477      C1478   1.404       .  A
C1477      H1482   1.083       .  S
C1478      C1479   1.405       .  A
C1478      H1483   1.083       .  S
C1479      C1480   1.405       .  A
C1480      H1484   1.083       .  S
C1485      C1486   1.402       .  A
C1485      C1490   1.392       .  A
C1485      H1491   1.084       .  S
C1486      C1487   1.403       .  A
C1487      C1488   1.402       .  A
C1487      H1492   1.083       .  S
C1488      C1489   1.408       .  A
C1488      H1493   1.083       .  S
C1489      C1490   1.404       .  A
C1490      H1494   1.083       .  S
C1495      C1496   1.402   1_455  A
C1495      C1500   1.395       .  A
C1495      H1501   1.084       .  S
C1497      C1498   1.401   1_655  A
C1497      H1502   1.084       .  S
C1498      C1499   1.406       .  A
C1498      H1503   1.083       .  S
C1500      H1504   1.084       .  S
C1505      C1506   1.405       .  A
C1505      C1510   1.404   1_455  A
C1505      H1511   1.083       .  S
C1506      C1507   1.402   1_455  A
C1507      C1508   1.389       .  A
C1507      H1512   1.084       .  S
C1508      C1509   1.404       .  A
C1508      H1513   1.083       .  S
C1509      C1510   1.406       .  A
C1510      H1514   1.083       .  S
C1515      C1516   1.405       .  A
C1515      C1520   1.406       .  A
C1515      H1521   1.083       .  S
C1516      C1517   1.400       .  A
C1517      C1518   1.391       .  A
C1517      H1522   1.084       .  S
C1518      C1519   1.406       .  A
C1518      H1523   1.083       .  S
C1519      C1520   1.408       .  A
C1520      H1524   1.083       .  S
C1525      C1526   1.403       .  A
C1525      C1530   1.400       .  A
C1526      C1527   1.400       .  A
C1527      C1528   1.384       .  A
C1527      H1532   1.084       .  S
C1528      C1529   1.401       .  A
C1528      H1533   1.084       .  S
C1529      C1530   1.405       .  A
C1530      H1534   1.083       .  S
C1535      C1536   1.400       .  A
C1535      C1540   1.385       .  A
C1535      H1541   1.084       .  S
C1536      C1537   1.403       .  A
C1537      C1538   1.398       .  A
C1537      H1542   1.083       .  S
C1538      C1539   1.403       .  A
C1538      H1543   1.083       .  S
C1539      C1540   1.401       .  A
C1540      H1544   1.084       .  S
C1545      C1546   1.408       .  A
C1545      C1550   1.402       .  A
C1545      H1551   1.083       .  S
C1546      C1547   1.403       .  A
C1547      C1548   1.400       .  A
C1547      H1552   1.083       .  S
C1548      C1549   1.408       .  A
C1548      H1553   1.083       .  S
C1549      C1550   1.404       .  A
C1550      H1554   1.083       .  S
C1555      C1556   1.406       .  A
C1555      C1560   1.403   1_545  A
C1555      H1561   1.083       .  S
C1556      C1557   1.405   1_545  A
C1557      C1558   1.392       .  A
C1557      H1562   1.083   1_565  S
C1558      C1559   1.402       .  A
C1558      H1563   1.084       .  S
C1559      C1560   1.404       .  A
C1560      H1564   1.083       .  S
C1565      C1570   1.401       .  A
C1565      H1571   1.083       .  S
C1566      C1567   1.404       .  A
C1567      C1568   1.397   1_545  A
C1567      H1572   1.084       .  S
C1568      H1573   1.083       .  S
C1569      C1570   1.406   1_565  A
C1570      H1574   1.084       .  S
C1575      C1576   1.409       .  A
C1575      C1580   1.407       .  A
C1575      H1581   1.083       .  S
C1576      C1577   1.404       .  A
C1577      C1578   1.391       .  A
C1577      H1582   1.083       .  S
C1578      C1579   1.406       .  A
C1578      H1583   1.084       .  S
C1579      C1580   1.406       .  A
C1580      H1584   1.083       .  S
C1585      C1586   1.407       .  A
C1585      C1590   1.404       .  A
C1585      H1591   1.083       .  S
C1586      C1587   1.407       .  A
C1587      C1588   1.392       .  A
C1587      H1592   1.083       .  S
C1588      C1589   1.399       .  A
C1588      H1593   1.084       .  S
C1589      C1590   1.404       .  A
C1590      H1594   1.083       .  S
C1595      C1596   1.404       .  A
C1595      C1600   1.393       .  A
C1595      H1601   1.083       .  S
C1596      C1597   1.408       .  A
C1597      C1598   1.406       .  A
C1597      H1602   1.084       .  S
C1598      C1599   1.405       .  A
C1598      H1603   1.083       .  S
C1599      C1600   1.403       .  A
C1600      H1604   1.084       .  S
C1605      C1606   1.408       .  A
C1605      C1610   1.399   1_655  A
C1605      H1611   1.083       .  S
C1606      C1607   1.404       .  A
C1607      C1608   1.399   1_655  A
C1607      H1612   1.083       .  S
C1608      C1609   1.406       .  A
C1608      H1613   1.083       .  S
C1609      C1610   1.402       .  A
C1610      H1614   1.083       .  S
C1615      C1620   1.396   1_655  A
C1615      H1621   1.084       .  S
C1616      C1617   1.403   1_655  A
C1617      C1618   1.398       .  A
C1617      H1622   1.084       .  S
C1618      H1623   1.083       .  S
C1619      C1620   1.402       .  A
C1620      H1624   1.084       .  S
C1625      C1626   1.403       .  A
C1625      C1630   1.403       .  A
C1625      H1631   1.083       .  S
C1626      C1627   1.403       .  A
C1627      C1628   1.394       .  A
C1627      H1632   1.084       .  S
C1628      C1629   1.406       .  A
C1628      H1633   1.083       .  S
C1629      C1630   1.409       .  A
C1630      H1634   1.083       .  S
C1635      C1636   1.404       .  A
C1635      C1640   1.400       .  A
C1636      C1637   1.398       .  A
C1637      C1638   1.385       .  A
C1637      H1642   1.084       .  S
C1638      C1639   1.404       .  A
C1638      H1643   1.084       .  S
C1639      C1640   1.404       .  A
C1640      H1644   1.083       .  S
C1645      C1646   1.401       .  A
C1645      C1650   1.387       .  A
C1645      H1651   1.084       .  S
C1646      C1647   1.405       .  A
C1647      C1648   1.401       .  A
C1647      H1652   1.083       .  S
C1648      C1649   1.404       .  A
C1648      H1653   1.083       .  S
C1649      C1650   1.401       .  A
C1650      H1654   1.084       .  S
C1655      C1656   1.401       .  A
C1655      C1660   1.395       .  A
C1655      H1661   1.083       .  S
C1656      C1657   1.406       .  A
C1657      C1658   1.398       .  A
C1657      H1662   1.083       .  S
C1658      C1659   1.403       .  A
C1658      H1663   1.083       .  S
C1659      C1660   1.406       .  A
C1660      H1664   1.083       .  S
