geometry optimzed in LAMMPS
_audit_creation_date              2020-11-30 
_audit_creation_method            'lammps2cif' 
_symmetry_space_group_name_H-M    'P1' 
_symmetry_Int_Tables_number       1 
_symmetry_cell_setting            triclinic 
loop_ 
_symmetry_equiv_pos_as_xyz 
  x,y,z 
_cell_length_a                    43.27689075 
_cell_length_b                    43.30483873701496 
_cell_length_c                    43.01636919268513 
_cell_angle_alpha                 90.31233151064461 
_cell_angle_beta                  89.59753137834589 
_cell_angle_gamma                 120.06119269835601 
loop_ 
_atom_site_label 
_atom_site_type_symbol 
_atom_site_fract_x 
_atom_site_fract_y 
_atom_site_fract_z 
_atom_site_charge 
Zn1        Zn  0.38721513  0.42673396  0.60437142     1.49700
Zn2        Zn  0.33019072  0.35629736  0.63839199     1.49400
Zn3        Zn  0.32872603  0.42891460  0.64535875     1.49100
Zn4        Zn  0.30994906  0.38897969  0.57996966     1.49500
O5          O  0.33831255  0.39961009  0.61741688    -1.80000
O6          O  0.41518321  0.41016119  0.62751558    -0.70600
O7          O  0.32173091  0.35970934  0.68510082    -0.70400
O8          O  0.36907006  0.47962111  0.64652316    -0.70000
O9          O  0.37539202  0.35228492  0.63328366    -0.70600
O10         O  0.40774910  0.47928199  0.61234234    -0.70200
O11         O  0.31912314  0.40967650  0.68903585    -0.70800
O12         O  0.28537859  0.41887567  0.57880890    -0.70200
O13         O  0.28496612  0.31359809  0.62034579    -0.71000
O14         O  0.28747381  0.43195695  0.62939587    -0.70400
O15         O  0.26992432  0.33870915  0.58264114    -0.70800
O16         O  0.33865286  0.38979633  0.54144687    -0.70700
O17         O  0.39385067  0.41566234  0.56001659    -0.70500
C18         C  0.40759441  0.37812793  0.63169551     0.81300
C19         C  0.31776006  0.38233147  0.70125597     0.81800
C20         C  0.39790386  0.49568497  0.63099651     0.80700
C21         C  0.27547400  0.43024594  0.60217826     0.81100
C22         C  0.26368449  0.31188692  0.59904358     0.82200
C23         C  0.37167588  0.39962569  0.53830418     0.81300
Zn24       Zn  0.38240976  0.28844174  0.35958112     1.49700
Zn25       Zn  0.35866917  0.33651828  0.39606252     1.49400
Zn26       Zn  0.43395865  0.34186756  0.41130768     1.49100
Zn27       Zn  0.42077894  0.36885663  0.34660133     1.49500
O28         O  0.39909007  0.33398952  0.37895251    -1.80000
O29         O  0.33523404  0.25380004  0.37810327    -0.70600
O30         O  0.36949529  0.35454140  0.43946504    -0.70400
O31         O  0.43865521  0.29717130  0.41561322    -0.70000
O32         O  0.31425420  0.28695763  0.39897222    -0.70600
O33         O  0.41541603  0.27065333  0.37017773    -0.70200
O34         O  0.42177252  0.35989675  0.45211396    -0.70800
O35         O  0.47410414  0.39126154  0.34785854    -0.70200
O36         O  0.35367737  0.37618116  0.37587623    -0.71000
O37         O  0.48313901  0.37859995  0.39593611    -0.70400
O38         O  0.40792016  0.40638256  0.35435723    -0.70800
O39         O  0.40364238  0.34794831  0.30401122    -0.70700
O40         O  0.37733696  0.28961845  0.31260844    -0.70500
C41         C  0.31104349  0.25668612  0.39246809     0.81300
C42         C  0.39477725  0.36348928  0.45855443     0.81800
C43         C  0.43335112  0.27408299  0.39454097     0.80700
C44         C  0.49482673  0.39382498  0.36978036     0.81100
C45         C  0.37959201  0.40482015  0.36473880     0.82200
C46         C  0.38718134  0.31591935  0.29423885     0.81300
Zn47       Zn  0.19633750  0.07978757  0.41959282     1.49700
Zn48       Zn  0.17684586  0.10302261  0.35622835     1.49400
Zn49       Zn  0.17176783  0.02703980  0.36096729     1.49100
Zn50       Zn  0.11807531  0.04322142  0.39702735     1.49500
O51         O  0.16649195  0.06352638  0.38310686    -1.80000
O52         O  0.22073812  0.13449275  0.42279015    -0.70600
O53         O  0.18467441  0.09289800  0.31216528    -0.70400
O54         O  0.21750974  0.02824995  0.37568694    -0.70000
O55         O  0.21832073  0.14710141  0.37280404    -0.70600
O56         O  0.23610238  0.06934652  0.41327621    -0.70200
O57         O  0.17719519  0.03816555  0.31463973    -0.70800
O58         O  0.08832454  0.49976625  0.37261360    -0.70200
O59         O  0.13672653  0.11366775  0.35554115    -0.71000
O60         O  0.12565041  0.47879771  0.36585562    -0.70400
O61         O  0.09856612  0.07631204  0.39072569    -0.70800
O62         O  0.11200492  0.02412968  0.44065817    -0.70700
O63         O  0.16799411  0.04997929  0.45752089    -0.70500
C64         C  0.23016360  0.15665435  0.40023663     0.81300
C65         C  0.18240726  0.06539972  0.29915777     0.81800
C66         C  0.24070115  0.04821859  0.39577540     0.80700
C67         C  0.09413365  0.47431817  0.36704312     0.81100
C68         C  0.10824257  0.10180372  0.37148187     0.82200
C69         C  0.13466284  0.02801308  0.46119477     0.81300
Zn70       Zn  0.07862087  0.44496112  0.64985817     1.49700
Zn71       Zn  0.11770749  0.40275349  0.63936556     1.49400
Zn72       Zn  0.06820829  0.40485332  0.58525373     1.49100
Zn73       Zn  0.14256251  0.47463714  0.60293850     1.49500
O74         O  0.10166321  0.43147231  0.61882269    -1.80000
O75         O  0.09309482  0.44092497  0.69326482    -0.70600
O76         O  0.08653493  0.35202510  0.62621525    -0.70400
O77         O  0.01782392  0.39069864  0.59934184    -0.70000
O78         O  0.11844671  0.40762292  0.68679803    -0.70600
O79         O  0.02563533  0.41371536  0.64702389    -0.70200
O80         O  0.06522398  0.35640439  0.58022056    -0.70800
O81         O  0.13384710  0.48246926  0.55923710    -0.70200
O82         O  0.16689830  0.41716995  0.62386169    -0.71000
O83         O  0.08199190  0.43584887  0.54493490    -0.70400
O84         O  0.18710471  0.47047537  0.60195388    -0.70800
O85         O  0.14752758  0.01891683  0.62358514    -0.70700
O86         O  0.09202288  0.49552069  0.64220408    -0.70500
C87         C  0.10793728  0.42444804  0.70430569     0.81300
C88         C  0.07008768  0.33823649  0.60096720     0.81800
C89         C  0.00545833  0.39456588  0.62514001     0.80700
C90         C  0.10936400  0.46646169  0.53935703     0.81100
C91         C  0.19114926  0.44439836  0.60977343     0.82200
C92         C  0.12142631  0.02214408  0.63339451     0.81300
Zn93       Zn  0.03370673  0.17142378  0.63656137     1.49700
Zn94       Zn  0.08569568  0.19496661  0.57669497     1.49400
Zn95       Zn  0.10872080  0.17421327  0.64018671     1.49100
Zn96       Zn  0.04756230  0.11667405  0.59920355     1.49500
O97         O  0.06920305  0.16511776  0.61350226    -1.80000
O98         O  0.03340803  0.21550460  0.62039961    -0.70600
O99         O  0.14064975  0.22067200  0.57415806    -0.70400
O100        O  0.09998410  0.18333112  0.68458458    -0.70000
O101        O  0.07379053  0.23372974  0.58210466    -0.70600
O102        O  0.04677416  0.17951546  0.68247539    -0.70200
O103        O  0.15337736  0.21518646  0.62342861    -0.70800
O104        O  0.07939513  0.09578479  0.60508856    -0.70200
O105        O  0.05674199  0.16695514  0.53828536    -0.71000
O106        O  0.11747601  0.13280274  0.64041180    -0.70400
O107        O  0.02857017  0.11116692  0.55569669    -0.70800
O108        O  0.50385278  0.08737917  0.62346945    -0.70700
O109        O  0.48505555  0.12576953  0.63407181    -0.70500
C110        C  0.05236650  0.23802332  0.59949362     0.81300
C111        C  0.16287328  0.22879335  0.59649563     0.81800
C112        C  0.07373169  0.18367310  0.69775303     0.80700
C113        C  0.10472535  0.10443951  0.62425810     0.81100
C114        C  0.03370613  0.13391426  0.53483258     0.82200
C115        C  0.47951076  0.09400489  0.63147250     0.81300
Zn116      Zn  0.40897196  0.11949487  0.35778378     1.49700
Zn117      Zn  0.45038764  0.07913600  0.34624933     1.49400
Zn118      Zn  0.48105846  0.14324234  0.39316532     1.49100
Zn119      Zn  0.41031726  0.06887148  0.41115708     1.49500
O120        O  0.43733870  0.10246010  0.37759987    -1.80000
O121        O  0.41406848  0.12097370  0.31059102    -0.70600
O122        O  0.00123802  0.09278309  0.35277606    -0.70400
O123        O  0.47786319  0.18849837  0.39437406    -0.70000
O124        O  0.44510403  0.09331668  0.30303088    -0.70600
O125        O  0.42410003  0.16873393  0.37364061    -0.70200
O126        O  0.02526478  0.14772429  0.37247546    -0.70800
O127        O  0.44102820  0.08305753  0.45162388    -0.70200
O128        O  0.42017819  0.02600198  0.34997601    -0.71000
O129        O  0.48864380  0.13396844  0.43673298    -0.70400
O130        O  0.39792875  0.01883007  0.39796021    -0.70800
O131        O  0.36065998  0.06417324  0.41507271    -0.70700
O132        O  0.35772387  0.08819518  0.37010907    -0.70500
C133        C  0.42957774  0.10942508  0.29261502     0.81300
C134        C  0.02808591  0.12167249  0.36195544     0.81800
C135        C  0.45184686  0.19293279  0.38712813     0.80700
C136        C  0.47213376  0.10984735  0.45686529     0.81100
C137        C  0.40194274  0.50612991  0.37245696     0.82200
C138        C  0.34299527  0.06999001  0.39445362     0.81300
Zn139      Zn  0.37533505  0.42311512  0.89498954     1.49700
Zn140      Zn  0.29700256  0.38228302  0.91732865     1.49400
Zn141      Zn  0.31772322  0.42521765  0.85295091     1.49100
Zn142      Zn  0.32141226  0.35367481  0.85869397     1.49500
O143        O  0.32709191  0.39571340  0.88056800    -1.80000
O144        O  0.38046616  0.41013430  0.93907601    -0.70600
O145        O  0.27238471  0.41227143  0.91978920    -0.70400
O146        O  0.35920230  0.47561962  0.85171373    -0.70000
O147        O  0.32429147  0.38061809  0.95581684    -0.70600
O148        O  0.39622817  0.47575751  0.88747831    -0.70200
O149        O  0.27665366  0.42909340  0.87004927    -0.70800
O150        O  0.31630832  0.35875432  0.81220443    -0.70200
O151        O  0.25772262  0.33186632  0.91206391    -0.71000
O152        O  0.30976899  0.40647647  0.80857255    -0.70400
O153        O  0.27634312  0.30941098  0.87434033    -0.70800
O154        O  0.36648143  0.35040678  0.86415395    -0.70700
O155        O  0.40489763  0.40830257  0.87151412    -0.70500
C156        C  0.35743994  0.39152857  0.95966254     0.81300
C157        C  0.26387854  0.42588719  0.89737715     0.81800
C158        C  0.38761940  0.49180890  0.86761870     0.80700
C159        C  0.31170479  0.38072632  0.79608378     0.81100
C160        C  0.25351854  0.30600708  0.89500931     0.82200
C161        C  0.39826449  0.37675094  0.86610752     0.81300
Zn162      Zn  0.35166513  0.32122425  0.13862099     1.49700
Zn163      Zn  0.42380209  0.31848028  0.14212609     1.49400
Zn164      Zn  0.38032602  0.29732460  0.07863661     1.49100
Zn165      Zn  0.41993465  0.37586053  0.10094350     1.49500
O166        O  0.39340613  0.32751382  0.11539080    -1.80000
O167        O  0.35753693  0.31482895  0.18485102    -0.70600
O168        O  0.42766760  0.27733652  0.12585132    -0.70400
O169        O  0.32983039  0.25814354  0.08449437    -0.70000
O170        O  0.40655028  0.31032972  0.18651040    -0.70600
O171        O  0.30765036  0.27598532  0.12314286    -0.70200
O172        O  0.40999498  0.27203552  0.07642639    -0.70800
O173        O  0.40683122  0.38057128  0.05697900    -0.70200
O174        O  0.47377761  0.35978680  0.14223648    -0.71000
O175        O  0.37923638  0.32467287  0.03966324    -0.70400
O176        O  0.47273170  0.39711890  0.10742245    -0.70800
O177        O  0.40485199  0.40516834  0.12452165    -0.70700
O178        O  0.34765770  0.36628930  0.13479297    -0.70500
C179        C  0.38049835  0.31075529  0.19994698     0.81300
C180        C  0.42390817  0.26386633  0.09883903     0.81800
C181        C  0.30422044  0.25341052  0.10225399     0.80700
C182        C  0.38945911  0.35771721  0.03598240     0.81100
C183        C  0.48938872  0.38826934  0.12639596     0.82200
C184        C  0.37358283  0.39821369  0.13183943     0.81300
Zn185      Zn  0.20576958  0.08725749  0.13983372     1.49700
Zn186      Zn  0.12471913  0.04661699  0.15207099     1.49400
Zn187      Zn  0.15381590  0.08560942  0.08698899     1.49100
Zn188      Zn  0.15708152  0.01531068  0.10458850     1.49500
O189        O  0.16033566  0.05895258  0.12035614    -1.80000
O190        O  0.20325762  0.08115054  0.18672983    -0.70600
O191        O  0.10248652  0.07745370  0.14897931    -0.70400
O192        O  0.19924146  0.13443442  0.08262382    -0.70000
O193        O  0.14463458  0.05086599  0.19503557    -0.70600
O194        O  0.22517496  0.13827763  0.12837200    -0.70200
O195        O  0.11684739  0.09865521  0.10071634    -0.70800
O196        O  0.13900274  0.00683160  0.06135237    -0.70200
O197        O  0.08712288  0.49616566  0.14495477    -0.71000
O198        O  0.13659531  0.05476641  0.04657205    -0.70400
O199        O  0.11821049  0.47175286  0.12621094    -0.70800
O200        O  0.20565949  0.01915690  0.10191478    -0.70700
O201        O  0.23979874  0.07323864  0.12231136    -0.70500
C202        C  0.17651509  0.06559255  0.20496795     0.81300
C203        C  0.10062022  0.09527338  0.12640827     0.81800
C204        C  0.22235858  0.15240630  0.10348412     0.80700
C205        C  0.13163356  0.02344335  0.04128809     0.81100
C206        C  0.08920634  0.46920477  0.13612337     0.82200
C207        C  0.23617916  0.04569472  0.10833817     0.81300
Zn208      Zn  0.06272413  0.38985098  0.85576191     1.49700
Zn209      Zn  0.06475217  0.45005775  0.89755560     1.49400
Zn210      Zn  0.10433311  0.41176496  0.92005441     1.49100
Zn211      Zn  0.13462023  0.46466412  0.86124753     1.49500
O212        O  0.09215112  0.42902943  0.88323889    -1.80000
O213        O  0.01225485  0.37986841  0.85489635    -0.70600
O214        O  0.07673334  0.46770631  0.94177921    -0.70400
O215        O  0.07408401  0.35720677  0.92229976    -0.70000
O216        O  0.01214294  0.41768145  0.89012292    -0.70600
O217        O  0.05918309  0.34549669  0.87217792    -0.70200
O218        O  0.10529843  0.44041093  0.95861616    -0.70800
O219        O  0.17821339  0.46326659  0.87781566    -0.70200
O220        O  0.08035227  0.99483340  0.87478096    -0.71000
O221        O  0.15450232  0.42216066  0.91518148    -0.70400
O222        O  0.13792129  0.01347997  0.86571156    -0.70800
O223        O  0.13045005  0.45258118  0.81477923    -0.70700
O224        O  0.08147175  0.39906903  0.81175148    -0.70500
C225        C  0.99600296  0.39207389  0.87090712     0.81300
C226        C  0.09456642  0.46278101  0.96251799     0.81800
C227        C  0.06150476  0.33551391  0.89935994     0.80700
C228        C  0.18077009  0.44341273  0.89831636     0.81100
C229        C  0.11187478  0.01936232  0.86843040     0.82200
C230        C  0.10814218  0.42555847  0.79904304     0.81300
Zn231      Zn  0.08612474  0.15446828  0.91089053     1.49700
Zn232      Zn  0.08848540  0.20764414  0.85827092     1.49400
Zn233      Zn  0.04840225  0.12680091  0.84474561     1.49100
Zn234      Zn  0.01588023  0.15783042  0.89308006     1.49500
O235        O  0.05989153  0.16159196  0.87721039    -1.80000
O236        O  0.13516684  0.19970586  0.91578220    -0.70600
O237        O  0.08519511  0.20649979  0.81096503    -0.70400
O238        O  0.07844466  0.10379772  0.84865273    -0.70000
O239        O  0.13904572  0.22704504  0.87078648    -0.70600
O240        O  0.09940908  0.11769961  0.89695717    -0.70200
O241        O  0.05614973  0.14811315  0.80193078    -0.70800
O242        O  0.47256895  0.11951139  0.87065730    -0.70200
O243        O  0.07365332  0.24114776  0.87572456    -0.71000
O244        O  0.49699473  0.08950882  0.84951329    -0.70400
O245        O  0.01972572  0.20644703  0.89640931    -0.70800
O246        O  0.00670404  0.13882600  0.93623703    -0.70700
O247        O  0.05468750  0.13665604  0.95125144    -0.70500
C248        C  0.15314547  0.22348862  0.89533196     0.81300
C249        C  0.07137356  0.18011874  0.79226307     0.81800
C250        C  0.09614805  0.10171129  0.87118298     0.80700
C251        C  0.46992577  0.09123281  0.85882845     0.81100
C252        C  0.04603662  0.23714218  0.88994560     0.76200
C253        C  0.02318292  0.13139888  0.95640570     0.81300
Zn254      Zn  0.46464059  0.13523660  0.13509615     1.49700
Zn255      Zn  0.38945464  0.06398340  0.14253761     1.49400
Zn256      Zn  0.41085476  0.10421831  0.07763752     1.49100
Zn257      Zn  0.44864935  0.06430627  0.10056422     1.49500
O258        O  0.42828381  0.09239972  0.11437285    -1.80000
O259        O  0.45427097  0.13163185  0.18171023    -0.70600
O260        O  0.34528878  0.06121963  0.12659891    -0.70400
O261        O  0.42050468  0.15421416  0.08229782    -0.70000
O262        O  0.40028735  0.08344046  0.18616690    -0.70600
O263        O  0.46253163  0.17868214  0.11873526    -0.70200
O264        O  0.35634075  0.07338803  0.07589825    -0.70800
O265        O  0.46662002  0.07607797  0.05616419    -0.70200
O266        O  0.37823789  0.01303825  0.14398350    -0.71000
O267        O  0.43983566  0.10511340  0.03917844    -0.70400
O268        O  0.41541045  0.01177584  0.10862513    -0.70800
O269        O  0.99322022  0.07968994  0.12370827    -0.70700
O270        O  0.01308231  0.13791681  0.12969670    -0.70500
C271        C  0.42760059  0.10985502  0.19813469     0.81300
C272        C  0.33496541  0.06212572  0.09919667     0.81800
C273        C  0.44192060  0.18076665  0.09873724     0.80700
C274        C  0.46204031  0.09412185  0.03534167     0.81100
C275        C  0.38983159  0.99616368  0.12806824     0.82200
C276        C  0.01832174  0.11137700  0.12849391     0.81300
C277        C  0.48455878  0.10456592  0.00777598    -0.09100
C278        C  0.00432924  0.11624550  0.98534609    -0.10700
C279        C  0.05091975  0.29864920  0.90293743    -0.09100
C280        C  0.04555939  0.26878415  0.89908171    -0.10700
C281        C  0.11698323  0.05454628  0.86608344    -0.09100
C282        C  0.11117413  0.07894682  0.86777069    -0.10700
C283        C  0.10508175  0.48513328  0.99002666    -0.09100
C284        C  0.11671814  0.00486052  0.01235740    -0.10700
C285        C  0.07776257  0.11021649  0.12956580    -0.09100
C286        C  0.05335898  0.11606294  0.13086173    -0.10700
C287        C  0.26804914  0.04556707  0.09942507    -0.09100
C288        C  0.29803884  0.05123453  0.09566493    -0.10700
C289        C  0.02667631  0.41196275  0.13103500    -0.09100
C290        C  0.05683348  0.43571554  0.13477307    -0.10700
C291        C  0.24693289  0.18978765  0.09926484    -0.09100
C292        C  0.27124078  0.22022527  0.09963578    -0.10700
C293        C  0.36858443  0.42830807  0.13482859    -0.09100
C294        C  0.37463305  0.45856036  0.13285256    -0.10700
C295        C  0.44077674  0.21325259  0.09552497    -0.09100
C296        C  0.43463206  0.23756281  0.09460864    -0.10700
C297        C  0.22079906  0.27267497  0.89838540    -0.09100
C298        C  0.19053869  0.24804465  0.89947238    -0.10700
C299        C  0.43604628  0.05900446  0.85876038    -0.09100
C300        C  0.41164447  0.02900213  0.86216500    -0.10700
C301        C  0.21347973  0.44281876  0.90150266    -0.09100
C302        C  0.23787200  0.43683830  0.90207035    -0.10700
C303        C  0.45853557  0.37758620  0.86641612    -0.09100
C304        C  0.42845949  0.37189449  0.86415647    -0.10700
C305        C  0.36920380  0.38051705  0.98687124    -0.09100
C306        C  0.37922379  0.36969746  0.00843490    -0.10700
C307        C  0.42910323  0.11377862  0.25949388    -0.09100
C308        C  0.42872334  0.11403954  0.23140816    -0.10700
C309        C  0.07387077  0.18707804  0.73110521    -0.09100
C310        C  0.07323767  0.18609310  0.75920523    -0.10700
C311        C  0.49078973  0.11378477  0.48571893    -0.09100
C312        C  0.01087137  0.12209651  0.50772498    -0.10700
C313        C  0.11214182  0.42522878  0.76572093    -0.09100
C314        C  0.11201297  0.42456071  0.73758185    -0.10700
C315        C  0.05179905  0.27072220  0.59653331    -0.09100
C316        C  0.05753366  0.30099014  0.59623124    -0.10700
C317        C  0.12349927  0.05609696  0.63221456    -0.09100
C318        C  0.11797892  0.08045791  0.62878882    -0.10700
C319        C  0.18400934  0.06471602  0.26579047    -0.09100
C320        C  0.18213766  0.06498973  0.23781298    -0.10700
C321        C  0.11361138  0.48508445  0.51039872    -0.09100
C322        C  0.12230759  0.00507249  0.48826200    -0.10700
C323        C  0.06173240  0.12296909  0.36301336    -0.09100
C324        C  0.08535974  0.11634797  0.36662594    -0.10700
C325        C  0.30521063  0.05626339  0.39823169    -0.09100
C326        C  0.27439610  0.04918516  0.39780653    -0.10700
C327        C  0.38043186  0.30978471  0.26139390    -0.09100
C328        C  0.37824707  0.30828664  0.23336054    -0.10700
C329        C  0.37897516  0.43755752  0.36614222    -0.09100
C330        C  0.38660930  0.46826731  0.36906839    -0.10700
C331        C  0.44698915  0.25011573  0.39766465    -0.09100
C332        C  0.45279737  0.22577074  0.39457974    -0.10700
C333        C  0.03256549  0.41610035  0.36537644    -0.09100
C334        C  0.06316606  0.43980160  0.36393949    -0.10700
C335        C  0.27959678  0.22416814  0.40142664    -0.09100
C336        C  0.25588599  0.19370985  0.40463859    -0.10700
C337        C  0.31252169  0.37777685  0.73449141    -0.09100
C338        C  0.31045784  0.37748844  0.76260289    -0.10700
C339        C  0.23027610  0.27951990  0.59426080    -0.09100
C340        C  0.19986474  0.25521780  0.59240743    -0.10700
C341        C  0.44482950  0.06368604  0.63583104    -0.09100
C342        C  0.42066153  0.03332348  0.63498410    -0.10700
C343        C  0.22363242  0.44478428  0.60220041    -0.09100
C344        C  0.24861733  0.44005503  0.59891655    -0.10700
C345        C  0.43735192  0.37236570  0.63244399    -0.09100
C346        C  0.46760778  0.37851877  0.62943377    -0.10700
C347        C  0.39182909  0.37862596  0.48772697    -0.09100
C348        C  0.38392288  0.39000048  0.51044519    -0.10700
Zn349      Zn  0.38721032  0.92672700  0.60435589     1.49700
Zn350      Zn  0.33019395  0.85629209  0.63839510     1.49400
Zn351      Zn  0.32872758  0.92891006  0.64535134     1.49100
Zn352      Zn  0.30994216  0.88896342  0.57996733     1.49500
O353        O  0.33831131  0.89960039  0.61741236    -1.80000
O354        O  0.41518919  0.91016382  0.62749319    -0.70600
O355        O  0.32172274  0.85970680  0.68510289    -0.70400
O356        O  0.36907604  0.97961431  0.64651644    -0.70000
O357        O  0.37540547  0.85229073  0.63330031    -0.70600
O358        O  0.40774364  0.97927430  0.61232313    -0.70200
O359        O  0.31911539  0.90967460  0.68902936    -0.70800
O360        O  0.28537635  0.91886314  0.57880040    -0.70200
O361        O  0.28497202  0.81358647  0.62034672    -0.71000
O362        O  0.28748195  0.93196057  0.62938417    -0.70400
O363        O  0.26991839  0.83869421  0.58264753    -0.70800
O364        O  0.33863769  0.88977188  0.54144192    -0.70700
O365        O  0.39384035  0.91565399  0.56000100    -0.70500
C366        C  0.40760612  0.87813610  0.63169759     0.81300
C367        C  0.31774877  0.88232994  0.70125374     0.81800
C368        C  0.39790488  0.99567743  0.63098316     0.80700
C369        C  0.27547960  0.93024466  0.60216692     0.81100
C370        C  0.26368491  0.81187288  0.59904832     0.82200
C371        C  0.37166161  0.89960871  0.53829345     0.81300
Zn372      Zn  0.38240279  0.78844100  0.35956671     1.49700
Zn373      Zn  0.35866328  0.83651860  0.39604630     1.49400
Zn374      Zn  0.43395058  0.84186342  0.41129506     1.49100
Zn375      Zn  0.42077825  0.86885882  0.34658854     1.49500
O376        O  0.39908498  0.83398944  0.37893791    -1.80000
O377        O  0.33522713  0.75379952  0.37809106    -0.70600
O378        O  0.36948709  0.85453775  0.43944915    -0.70400
O379        O  0.43864429  0.79716622  0.41560006    -0.70000
O380        O  0.31424811  0.78695865  0.39895799    -0.70600
O381        O  0.41540823  0.77065103  0.37016308    -0.70200
O382        O  0.42176073  0.85988698  0.45210178    -0.70800
O383        O  0.47410435  0.89126701  0.34785270    -0.70200
O384        O  0.35367374  0.87618417  0.37586219    -0.71000
O385        O  0.48313382  0.87859677  0.39592879    -0.70400
O386        O  0.40791597  0.90638317  0.35434168    -0.70800
O387        O  0.40364937  0.84795082  0.30399666    -0.70700
O388        O  0.37733340  0.78961997  0.31259354    -0.70500
C389        C  0.31103757  0.75668668  0.39245674     0.81300
C390        C  0.39476597  0.86348060  0.45854075     0.81800
C391        C  0.43334129  0.77407902  0.39452731     0.80700
C392        C  0.49482468  0.89382672  0.36977534     0.81100
C393        C  0.37958879  0.90482239  0.36472392     0.82200
C394        C  0.38718555  0.81592199  0.29422372     0.81300
Zn395      Zn  0.19632922  0.57979046  0.41959824     1.49700
Zn396      Zn  0.17683603  0.60302531  0.35623570     1.49400
Zn397      Zn  0.17176133  0.52704515  0.36097121     1.49100
Zn398      Zn  0.11806557  0.54322132  0.39703211     1.49500
O399        O  0.16648296  0.56352891  0.38311286    -1.80000
O400        O  0.22073201  0.63449658  0.42279501    -0.70600
O401        O  0.18466218  0.59290262  0.31217285    -0.70400
O402        O  0.21750313  0.52825592  0.37568885    -0.70000
O403        O  0.21831203  0.64710280  0.37280880    -0.70600
O404        O  0.23609371  0.56934850  0.41328132    -0.70200
O405        O  0.17718553  0.53817117  0.31464434    -0.70800
O406        O  0.08833117  0.99976800  0.37260811    -0.70200
O407        O  0.13671761  0.61367038  0.35554929    -0.71000
O408        O  0.12565254  0.97879367  0.36585265    -0.70400
O409        O  0.09855310  0.57630864  0.39072831    -0.70800
O410        O  0.11199573  0.52413090  0.44066304    -0.70700
O411        O  0.16798520  0.54998070  0.45752548    -0.70500
C412        C  0.23015725  0.65665693  0.40024041     0.81300
C413        C  0.18239524  0.56540534  0.29916397     0.81800
C414        C  0.24069333  0.54822235  0.39577892     0.80700
C415        C  0.09413671  0.97431724  0.36703968     0.81100
C416        C  0.10823128  0.60180269  0.37148676     0.82200
C417        C  0.13465409  0.52801407  0.46119891     0.81300
Zn418      Zn  0.07864725  0.94498702  0.64986613     1.49700
Zn419      Zn  0.11773232  0.90277577  0.63937090     1.49400
Zn420      Zn  0.06822424  0.90486908  0.58526435     1.49100
Zn421      Zn  0.14258275  0.97465582  0.60293783     1.49500
O422        O  0.10168461  0.93149300  0.61882895    -1.80000
O423        O  0.09312090  0.94094679  0.69327172    -0.70600
O424        O  0.08656026  0.85204519  0.62622523    -0.70400
O425        O  0.01784191  0.89071824  0.59935773    -0.70000
O426        O  0.11847314  0.90764515  0.68680298    -0.70600
O427        O  0.02565943  0.91374516  0.64703602    -0.70200
O428        O  0.06523724  0.85641751  0.58023484    -0.70800
O429        O  0.13386014  0.98248196  0.55923709    -0.70200
O430        O  0.16692075  0.91719097  0.62386188    -0.71000
O431        O  0.08200366  0.93585881  0.54494146    -0.70400
O432        O  0.18712368  0.97049187  0.60194622    -0.70800
O433        O  0.14750068  0.51889365  0.62358904    -0.70700
O434        O  0.09205497  0.99554870  0.64221173    -0.70500
C435        C  0.10796200  0.92446805  0.70431148     0.81300
C436        C  0.07010708  0.83825274  0.60098042     0.81800
C437        C  0.00547935  0.89459117  0.62515540     0.80700
C438        C  0.10937502  0.96647115  0.53935926     0.81100
C439        C  0.19116881  0.94441566  0.60976749     0.82200
C440        C  0.12139609  0.52211814  0.63339319     0.81300
Zn441      Zn  0.03371129  0.67143058  0.63657282     1.49700
Zn442      Zn  0.08569366  0.69496602  0.57670140     1.49400
Zn443      Zn  0.10871769  0.67420294  0.64019128     1.49100
Zn444      Zn  0.04755236  0.61667231  0.59920871     1.49500
O445        O  0.06920046  0.66511650  0.61350904    -1.80000
O446        O  0.03341822  0.71551550  0.62041256    -0.70600
O447        O  0.14064855  0.72066614  0.57416297    -0.70400
O448        O  0.09999254  0.68333192  0.68458926    -0.70000
O449        O  0.07379648  0.73373536  0.58211450    -0.70600
O450        O  0.04678781  0.67952820  0.68248491    -0.70200
O451        O  0.15337703  0.71516861  0.62343023    -0.70800
O452        O  0.07937670  0.59577321  0.60509201    -0.70200
O453        O  0.05673440  0.66695565  0.53829194    -0.71000
O454        O  0.11746023  0.63278423  0.64041719    -0.70400
O455        O  0.02855846  0.61116716  0.55570250    -0.70800
O456        O  0.50384356  0.58738290  0.62347567    -0.70700
O457        O  0.48505580  0.62577849  0.63408950    -0.70500
C458        C  0.05237738  0.73803349  0.59950626     0.81300
C459        C  0.16287294  0.72878001  0.59649887     0.81800
C460        C  0.07374636  0.68368387  0.69775981     0.80700
C461        C  0.10470491  0.60442160  0.62426233     0.81100
C462        C  0.03369590  0.63391550  0.53483882     0.82200
C463        C  0.47950600  0.59401219  0.63148553     0.81300
Zn464      Zn  0.40896113  0.61948796  0.35778288     1.49700
Zn465      Zn  0.45037555  0.57912909  0.34625137     1.49400
Zn466      Zn  0.48104654  0.64323729  0.39316745     1.49100
Zn467      Zn  0.41030703  0.56886836  0.41116114     1.49500
O468        O  0.43732751  0.60245443  0.37760181    -1.80000
O469        O  0.41405876  0.62096675  0.31058960    -0.70600
O470        O  0.00122595  0.59277781  0.35277760    -0.70400
O471        O  0.47785194  0.68849346  0.39437147    -0.70000
O472        O  0.44509224  0.59330765  0.30303091    -0.70600
O473        O  0.42408930  0.66872752  0.37363653    -0.70200
O474        O  0.02525173  0.64771874  0.37247766    -0.70800
O475        O  0.44101726  0.58305764  0.45162932    -0.70200
O476        O  0.42016862  0.52599538  0.34998262    -0.71000
O477        O  0.48863300  0.63396716  0.43673656    -0.70400
O478        O  0.39792165  0.51882694  0.39796770    -0.70800
O479        O  0.36064955  0.56417013  0.41507445    -0.70700
O480        O  0.35771332  0.58819032  0.37010965    -0.70500
C481        C  0.42956795  0.60941755  0.29261405     0.81300
C482        C  0.02807331  0.62166751  0.36195707     0.81800
C483        C  0.45183604  0.69292740  0.38712316     0.80700
C484        C  0.47212289  0.60984775  0.45687028     0.81100
C485        C  0.40194959  0.00613468  0.37244850     0.82200
C486        C  0.34298510  0.56998705  0.39445513     0.81300
Zn487      Zn  0.37531697  0.92311042  0.89497936     1.49700
Zn488      Zn  0.29699002  0.88227945  0.91733298     1.49400
Zn489      Zn  0.31769689  0.92521566  0.85295472     1.49100
Zn490      Zn  0.32138958  0.85367237  0.85869006     1.49500
O491        O  0.32707086  0.89571040  0.88056643    -1.80000
O492        O  0.38045723  0.91012539  0.93906148    -0.70600
O493        O  0.27236198  0.91225720  0.91979858    -0.70400
O494        O  0.35917348  0.97562306  0.85172429    -0.70000
O495        O  0.32428786  0.88062227  0.95581686    -0.70600
O496        O  0.39620637  0.97575319  0.88747748    -0.70200
O497        O  0.27662023  0.92907771  0.87005900    -0.70800
O498        O  0.31628045  0.85875313  0.81220180    -0.70200
O499        O  0.25771551  0.83186052  0.91207544    -0.71000
O500        O  0.30974603  0.90647862  0.80857272    -0.70400
O501        O  0.27632529  0.80940739  0.87434148    -0.70800
O502        O  0.36646042  0.85040570  0.86414301    -0.70700
O503        O  0.40487590  0.90830363  0.87149021    -0.70500
C504        C  0.35743622  0.89152715  0.95965406     0.81300
C505        C  0.26384728  0.92586768  0.89738842     0.81800
C506        C  0.38759364  0.99180934  0.86762633     0.80700
C507        C  0.31167964  0.88072768  0.79608230     0.81100
C508        C  0.25350774  0.80600203  0.89501828     0.82200
C509        C  0.39824348  0.87675144  0.86608800     0.81300
Zn510      Zn  0.35167797  0.82122940  0.13860580     1.49700
Zn511      Zn  0.42381082  0.81847579  0.14210661     1.49400
Zn512      Zn  0.38032728  0.79732270  0.07862069     1.49100
Zn513      Zn  0.41994831  0.87586013  0.10092630     1.49500
O514        O  0.39341581  0.82751374  0.11537413    -1.80000
O515        O  0.35755312  0.81483615  0.18483507    -0.70600
O516        O  0.42766525  0.77732672  0.12582885    -0.70400
O517        O  0.32983204  0.75814244  0.08448329    -0.70000
O518        O  0.40656169  0.81032820  0.18649282    -0.70600
O519        O  0.30765903  0.77598954  0.12313313    -0.70200
O520        O  0.40999158  0.77203054  0.07640449    -0.70800
O521        O  0.40684207  0.88057093  0.05696287    -0.70200
O522        O  0.47379072  0.85977763  0.14221251    -0.71000
O523        O  0.37923521  0.82467129  0.03964959    -0.70400
O524        O  0.47274612  0.89711280  0.10740110    -0.70800
O525        O  0.40487133  0.90517261  0.12450574    -0.70700
O526        O  0.34767580  0.86629785  0.13477710    -0.70500
C527        C  0.38051259  0.81075876  0.19993034     0.81300
C528        C  0.42390220  0.76385691  0.09881599     0.81800
C529        C  0.30422528  0.75341192  0.10224576     0.80700
C530        C  0.38946353  0.85771670  0.03596827     0.81100
C531        C  0.48940343  0.88826007  0.12637163     0.82200
C532        C  0.37360317  0.89822133  0.13182381     0.81300
Zn533      Zn  0.20575933  0.58726073  0.13984262     1.49700
Zn534      Zn  0.12470754  0.54663378  0.15207728     1.49400
Zn535      Zn  0.15381386  0.58561111  0.08699095     1.49100
Zn536      Zn  0.15706486  0.51530877  0.10461364     1.49500
O537        O  0.16032529  0.55895840  0.12036620    -1.80000
O538        O  0.20324411  0.58115453  0.18673776    -0.70600
O539        O  0.10247871  0.57747172  0.14897200    -0.70400
O540        O  0.19924165  0.63443553  0.08262735    -0.70000
O541        O  0.14462036  0.55088731  0.19504312    -0.70600
O542        O  0.22517149  0.63828128  0.12837790    -0.70200
O543        O  0.11683983  0.59865668  0.10070387    -0.70800
O544        O  0.13899213  0.50682193  0.06137670    -0.70200
O545        O  0.08713872  0.99614855  0.14494089    -0.71000
O546        O  0.13660571  0.55476234  0.04657682    -0.70400
O547        O  0.11822824  0.97174562  0.12617915    -0.70800
O548        O  0.20563672  0.51914436  0.10194517    -0.70700
O549        O  0.23978370  0.57323422  0.12232344    -0.70500
C550        C  0.17650036  0.56560496  0.20497553     0.81300
C551        C  0.10061140  0.59528226  0.12639379     0.81800
C552        C  0.22235824  0.65240818  0.10348771     0.80700
C553        C  0.13163727  0.52343497  0.04130261     0.81100
C554        C  0.08922388  0.96919189  0.13609839     0.82200
C555        C  0.23615860  0.54568329  0.10835955     0.81300
Zn556      Zn  0.06270250  0.88984318  0.85575731     1.49700
Zn557      Zn  0.06472984  0.95005644  0.89754149     1.49400
Zn558      Zn  0.10429298  0.91175160  0.92005779     1.49100
Zn559      Zn  0.13460138  0.96465232  0.86125638     1.49500
O560        O  0.09212425  0.92901914  0.88323743    -1.80000
O561        O  0.01223437  0.87986517  0.85488302    -0.70600
O562        O  0.07671260  0.96771591  0.94176375    -0.70400
O563        O  0.07403477  0.85719386  0.92230379    -0.70000
O564        O  0.01212066  0.91768211  0.89010481    -0.70600
O565        O  0.05915550  0.84548690  0.87217747    -0.70200
O566        O  0.10525879  0.94040617  0.95861343    -0.70800
O567        O  0.17818466  0.96324438  0.87783204    -0.70200
O568        O  0.08036841  0.49484078  0.87480741    -0.71000
O569        O  0.15446028  0.92213531  0.91519412    -0.70400
O570        O  0.13793175  0.51348895  0.86570245    -0.70800
O571        O  0.13044292  0.95257602  0.81478880    -0.70700
O572        O  0.08146352  0.89906556  0.81175012    -0.70500
C573        C  0.99598188  0.89207377  0.87088936     0.81300
C574        C  0.09453775  0.96278594  0.96250767     0.81800
C575        C  0.06146543  0.83550225  0.89936222     0.80700
C576        C  0.18073295  0.94338586  0.89833270     0.81100
C577        C  0.11188530  0.51936955  0.86843946     0.82200
C578        C  0.10813890  0.92555623  0.79904787     0.81300
Zn579      Zn  0.08611445  0.65446446  0.91089801     1.49700
Zn580      Zn  0.08848212  0.70765535  0.85828247     1.49400
Zn581      Zn  0.04841934  0.62681630  0.84474411     1.49100
Zn582      Zn  0.01587326  0.65782722  0.89307611     1.49500
O583        O  0.05989150  0.66159794  0.87721431    -1.80000
O584        O  0.13515726  0.69969940  0.91579510    -0.70600
O585        O  0.08520479  0.70652041  0.81097467    -0.70400
O586        O  0.07846290  0.60381489  0.84865284    -0.70000
O587        O  0.13903831  0.72705529  0.87080792    -0.70600
O588        O  0.09939983  0.61769498  0.89696655    -0.70200
O589        O  0.05617485  0.64813547  0.80193302    -0.70800
O590        O  0.47257442  0.61951061  0.87064082    -0.70200
O591        O  0.07363871  0.74115120  0.87573593    -0.71000
O592        O  0.49701451  0.58951909  0.84950113    -0.70400
O593        O  0.01970713  0.70643886  0.89640853    -0.70800
O594        O  0.00668437  0.63881235  0.93623040    -0.70700
O595        O  0.05466680  0.63664605  0.95125416    -0.70500
C596        C  0.15313656  0.72348891  0.89534998     0.81300
C597        C  0.07139391  0.68014217  0.79226914     0.81800
C598        C  0.09615256  0.60171703  0.87118893     0.80700
C599        C  0.46994050  0.59123609  0.85881211     0.81100
C600        C  0.04601571  0.73713774  0.88995103     0.76200
C601        C  0.02315952  0.63138424  0.95640207     0.81300
Zn602      Zn  0.46461763  0.63522365  0.13508684     1.49700
Zn603      Zn  0.38943701  0.56397375  0.14254025     1.49400
Zn604      Zn  0.41082320  0.60419311  0.07763237     1.49100
Zn605      Zn  0.44862453  0.56428979  0.10055948     1.49500
O606        O  0.42826015  0.59238413  0.11436848    -1.80000
O607        O  0.45425752  0.63162683  0.18170422    -0.70600
O608        O  0.34526875  0.56120680  0.12660701    -0.70400
O609        O  0.42047487  0.65419023  0.08228487    -0.70000
O610        O  0.40027592  0.58343474  0.18616795    -0.70600
O611        O  0.46250567  0.67866377  0.11871894    -0.70200
O612        O  0.35630874  0.57336088  0.07590315    -0.70800
O613        O  0.46658963  0.57605590  0.05615690    -0.70200
O614        O  0.37821983  0.51303006  0.14399009    -0.71000
O615        O  0.43979826  0.60508360  0.03916967    -0.70400
O616        O  0.41538556  0.51176064  0.10862806    -0.70800
O617        O  0.99320097  0.57967992  0.12369736    -0.70700
O618        O  0.01305880  0.63790681  0.12967904    -0.70500
C619        C  0.42759028  0.60985074  0.19813243     0.81300
C620        C  0.33493903  0.56210485  0.09920566     0.81800
C621        C  0.44189416  0.68074555  0.09871996     0.80700
C622        C  0.46200565  0.59409553  0.03533306     0.81100
C623        C  0.38980970  0.49615246  0.12807469     0.82200
C624        C  0.01830153  0.61136927  0.12847612     0.81300
C625        C  0.48452452  0.60454129  0.00776677    -0.09100
C626        C  0.00429816  0.61622461  0.98533930    -0.10700
C627        C  0.05088121  0.79863767  0.90294096    -0.09100
C628        C  0.04552765  0.76877462  0.89908640    -0.10700
C629        C  0.11698843  0.55455151  0.86609162    -0.09100
C630        C  0.11117785  0.57895157  0.86777849    -0.10700
C631        C  0.10505829  0.98514335  0.99001381    -0.09100
C632        C  0.11673303  0.50484998  0.01237106    -0.10700
C633        C  0.07774953  0.61022150  0.12954184    -0.09100
C634        C  0.05334162  0.61606109  0.13083734    -0.10700
C635        C  0.26802434  0.54554884  0.09944492    -0.09100
C636        C  0.29801195  0.55121287  0.09567977    -0.10700
C637        C  0.02669312  0.91195012  0.13100716    -0.09100
C638        C  0.05685130  0.93570140  0.13474436    -0.10700
C639        C  0.24693577  0.68978895  0.09926558    -0.09100
C640        C  0.27124460  0.72022587  0.09963270    -0.10700
C641        C  0.36860827  0.92831811  0.13481455    -0.09100
C642        C  0.37465630  0.95857077  0.13284192    -0.10700
C643        C  0.44075508  0.71323305  0.09550154    -0.09100
C644        C  0.43461773  0.73754772  0.09458378    -0.10700
C645        C  0.22079070  0.77266932  0.89840031    -0.09100
C646        C  0.19053024  0.74804057  0.89949115    -0.10700
C647        C  0.43606620  0.55900340  0.85874281    -0.09100
C648        C  0.41166932  0.52899993  0.86215168    -0.10700
C649        C  0.21343949  0.94278615  0.90152205    -0.09100
C650        C  0.23783396  0.93680925  0.90208642    -0.10700
C651        C  0.45851527  0.87758774  0.86639442    -0.09100
C652        C  0.42843917  0.87189629  0.86413429    -0.10700
C653        C  0.36920518  0.88051760  0.98686049    -0.09100
C654        C  0.37922708  0.86969828  0.00842250    -0.10700
C655        C  0.42909633  0.61377335  0.25949236    -0.09100
C656        C  0.42871737  0.61403671  0.23140646    -0.10700
C657        C  0.07389337  0.68709885  0.73111138    -0.09100
C658        C  0.07326278  0.68611956  0.75921160    -0.10700
C659        C  0.49077882  0.61378727  0.48572472    -0.09100
C660        C  0.01086042  0.62209927  0.50773110    -0.10700
C661        C  0.11214949  0.92523268  0.76572682    -0.09100
C662        C  0.11203073  0.92457304  0.73758789    -0.10700
C663        C  0.05181602  0.77073643  0.59654859    -0.09100
C664        C  0.05755279  0.80100525  0.59624695    -0.10700
C665        C  0.12346857  0.55607086  0.63221562    -0.09100
C666        C  0.11795146  0.58043405  0.62879182    -0.10700
C667        C  0.18399475  0.56472319  0.26579694    -0.09100
C668        C  0.18212170  0.56499967  0.23782007    -0.10700
C669        C  0.11361983  0.98508879  0.51039867    -0.09100
C670        C  0.12229927  0.50507105  0.48826485    -0.10700
C671        C  0.06171996  0.62296521  0.36301517    -0.09100
C672        C  0.08534774  0.61634541  0.36662929    -0.10700
C673        C  0.30520122  0.55626334  0.39823437    -0.09100
C674        C  0.27438759  0.54918773  0.39781000    -0.10700
C675        C  0.38044217  0.80978877  0.26137778    -0.09100
C676        C  0.37826144  0.80829105  0.23334410    -0.10700
C677        C  0.37897446  0.93756111  0.36612824    -0.09100
C678        C  0.38661229  0.96827187  0.36905647    -0.10700
C679        C  0.44697843  0.75011123  0.39765213    -0.09100
C680        C  0.45278683  0.72576624  0.39457059    -0.10700
C681        C  0.03256438  0.91610227  0.36537456    -0.09100
C682        C  0.06316625  0.93980189  0.36393789    -0.10700
C683        C  0.27959275  0.72416965  0.40142103    -0.09100
C684        C  0.25588200  0.69371235  0.40463906    -0.10700
C685        C  0.31250318  0.87777776  0.73448931    -0.09100
C686        C  0.31043485  0.87749146  0.76260073    -0.10700
C687        C  0.23027733  0.77950379  0.59426710    -0.09100
C688        C  0.19986568  0.75520242  0.59241191    -0.10700
C689        C  0.44482409  0.56369517  0.63584605    -0.09100
C690        C  0.42065763  0.53333143  0.63499835    -0.10700
C691        C  0.22364850  0.94479735  0.60218899    -0.09100
C692        C  0.24862904  0.94006148  0.59890311    -0.10700
C693        C  0.43736942  0.87238288  0.63245820    -0.09100
C694        C  0.46762841  0.87854300  0.62945202    -0.10700
C695        C  0.39181454  0.87861242  0.48771454    -0.09100
C696        C  0.38390674  0.88998389  0.51043341    -0.10700
Zn697      Zn  0.88721514  0.42673396  0.60437141     1.49700
Zn698      Zn  0.83019077  0.35629736  0.63839198     1.49400
Zn699      Zn  0.82872607  0.42891462  0.64535874     1.49100
Zn700      Zn  0.80994904  0.38897970  0.57996967     1.49500
O701        O  0.83831255  0.39961009  0.61741687    -1.80000
O702        O  0.91518328  0.41016118  0.62751555    -0.70600
O703        O  0.82173096  0.35970937  0.68510083    -0.70400
O704        O  0.86907008  0.47962112  0.64652315    -0.70000
O705        O  0.87539208  0.35228494  0.63328364    -0.70600
O706        O  0.90774915  0.47928200  0.61234236    -0.70200
O707        O  0.81912315  0.40967651  0.68903584    -0.70800
O708        O  0.78537857  0.41887565  0.57880891    -0.70200
O709        O  0.78496610  0.31359809  0.62034580    -0.71000
O710        O  0.78747381  0.43195695  0.62939588    -0.70400
O711        O  0.76992429  0.33870915  0.58264116    -0.70800
O712        O  0.83865287  0.38979634  0.54144683    -0.70700
O713        O  0.89385065  0.41566231  0.56001656    -0.70500
C714        C  0.90759439  0.37812790  0.63169548     0.81300
C715        C  0.81776011  0.38233145  0.70125596     0.81800
C716        C  0.89790394  0.49568496  0.63099648     0.80700
C717        C  0.77547401  0.43024595  0.60217826     0.81100
C718        C  0.76368452  0.31188695  0.59904361     0.82200
C719        C  0.87167578  0.39962568  0.53830421     0.81300
Zn720      Zn  0.88240974  0.28844173  0.35958111     1.49700
Zn721      Zn  0.85866917  0.33651827  0.39606254     1.49400
Zn722      Zn  0.93395866  0.34186756  0.41130769     1.49100
Zn723      Zn  0.92077890  0.36885664  0.34660133     1.49500
O724        O  0.89909004  0.33398952  0.37895251    -1.80000
O725        O  0.83523403  0.25380003  0.37810327    -0.70600
O726        O  0.86949529  0.35454140  0.43946505    -0.70400
O727        O  0.93865522  0.29717133  0.41561321    -0.70000
O728        O  0.81425422  0.28695761  0.39897225    -0.70600
O729        O  0.91541599  0.27065333  0.37017773    -0.70200
O730        O  0.92177250  0.35989677  0.45211401    -0.70800
O731        O  0.97410415  0.39126157  0.34785854    -0.70200
O732        O  0.85367735  0.37618115  0.37587627    -0.71000
O733        O  0.98313904  0.37859995  0.39593609    -0.70400
O734        O  0.90792011  0.40638255  0.35435721    -0.70800
O735        O  0.90364235  0.34794830  0.30401121    -0.70700
O736        O  0.87733694  0.28961845  0.31260843    -0.70500
C737        C  0.81104349  0.25668613  0.39246812     0.81300
C738        C  0.89477734  0.36348926  0.45855439     0.81800
C739        C  0.93335112  0.27408294  0.39454095     0.80700
C740        C  0.99482670  0.39382497  0.36978035     0.81100
C741        C  0.87959192  0.40482016  0.36473882     0.82200
C742        C  0.88718131  0.31591934  0.29423886     0.81300
Zn743      Zn  0.69633743  0.07978758  0.41959282     1.49700
Zn744      Zn  0.67684585  0.10302260  0.35622835     1.49400
Zn745      Zn  0.67176783  0.02703980  0.36096730     1.49100
Zn746      Zn  0.61807527  0.04322143  0.39702735     1.49500
O747        O  0.66649193  0.06352638  0.38310686    -1.80000
O748        O  0.72073803  0.13449276  0.42279017    -0.70600
O749        O  0.68467444  0.09289799  0.31216528    -0.70400
O750        O  0.71750969  0.02824995  0.37568699    -0.70000
O751        O  0.71832075  0.14710141  0.37280405    -0.70600
O752        O  0.73610236  0.06934658  0.41327619    -0.70200
O753        O  0.67719524  0.03816555  0.31463974    -0.70800
O754        O  0.58832458  0.49976631  0.37261359    -0.70200
O755        O  0.63672650  0.11366776  0.35554112    -0.71000
O756        O  0.62565041  0.47879775  0.36585564    -0.70400
O757        O  0.59856607  0.07631204  0.39072566    -0.70800
O758        O  0.61200482  0.02412966  0.44065821    -0.70700
O759        O  0.66799401  0.04997926  0.45752089    -0.70500
C760        C  0.73016357  0.15665435  0.40023663     0.81300
C761        C  0.68240732  0.06539973  0.29915777     0.81800
C762        C  0.74070111  0.04821863  0.39577543     0.80700
C763        C  0.59413363  0.47431816  0.36704311     0.81100
C764        C  0.60824250  0.10180371  0.37148186     0.82200
C765        C  0.63466278  0.02801310  0.46119474     0.81300
Zn766      Zn  0.57862084  0.44496111  0.64985818     1.49700
Zn767      Zn  0.61770752  0.40275351  0.63936555     1.49400
Zn768      Zn  0.56820822  0.40485331  0.58525373     1.49100
Zn769      Zn  0.64256248  0.47463714  0.60293849     1.49500
O770        O  0.60166317  0.43147231  0.61882269    -1.80000
O771        O  0.59309483  0.44092493  0.69326480    -0.70600
O772        O  0.58653500  0.35202509  0.62621522    -0.70400
O773        O  0.51782392  0.39069868  0.59934184    -0.70000
O774        O  0.61844677  0.40762292  0.68679804    -0.70600
O775        O  0.52563535  0.41371537  0.64702390    -0.70200
O776        O  0.56522390  0.35640433  0.58022061    -0.70800
O777        O  0.63384704  0.48246923  0.55923710    -0.70200
O778        O  0.66689833  0.41716999  0.62386168    -0.71000
O779        O  0.58199184  0.43584885  0.54493491    -0.70400
O780        O  0.68710470  0.47047538  0.60195386    -0.70800
O781        O  0.64752762  0.01891685  0.62358514    -0.70700
O782        O  0.59202289  0.49552068  0.64220410    -0.70500
C783        C  0.60793728  0.42444804  0.70430568     0.81300
C784        C  0.57008766  0.33823653  0.60096719     0.81800
C785        C  0.50545826  0.39456588  0.62514003     0.80700
C786        C  0.60936395  0.46646167  0.53935703     0.81100
C787        C  0.69114925  0.44439838  0.60977342     0.82200
C788        C  0.62142642  0.02214412  0.63339449     0.81300
Zn789      Zn  0.53370678  0.17142379  0.63656137     1.49700
Zn790      Zn  0.58569567  0.19496661  0.57669491     1.49400
Zn791      Zn  0.60872083  0.17421324  0.64018668     1.49100
Zn792      Zn  0.54756226  0.11667404  0.59920354     1.49500
O793        O  0.56920304  0.16511775  0.61350223    -1.80000
O794        O  0.53340810  0.21550466  0.62039964    -0.70600
O795        O  0.64064976  0.22067204  0.57415803    -0.70400
O796        O  0.59998412  0.18333105  0.68458459    -0.70000
O797        O  0.57379044  0.23372970  0.58210456    -0.70600
O798        O  0.54677422  0.17951546  0.68247536    -0.70200
O799        O  0.65337735  0.21518647  0.62342857    -0.70800
O800        O  0.57939508  0.09578474  0.60508856    -0.70200
O801        O  0.55674203  0.16695510  0.53828530    -0.71000
O802        O  0.61747604  0.13280273  0.64041173    -0.70400
O803        O  0.52857012  0.11116692  0.55569669    -0.70800
O804        O  0.00385279  0.08737917  0.62346946    -0.70700
O805        O  0.98505552  0.12576950  0.63407178    -0.70500
C806        C  0.55236651  0.23802328  0.59949359     0.81300
C807        C  0.66287322  0.22879335  0.59649562     0.81800
C808        C  0.57373180  0.18367307  0.69775303     0.80700
C809        C  0.60472536  0.10443950  0.62425808     0.81100
C810        C  0.53370615  0.13391425  0.53483257     0.82200
C811        C  0.97951077  0.09400484  0.63147248     0.81300
Zn812      Zn  0.90897196  0.11949486  0.35778377     1.49700
Zn813      Zn  0.95038773  0.07913605  0.34624935     1.49400
Zn814      Zn  0.98105849  0.14324235  0.39316531     1.49100
Zn815      Zn  0.91031727  0.06887151  0.41115707     1.49500
O816        O  0.93733872  0.10246012  0.37759986    -1.80000
O817        O  0.91406851  0.12097368  0.31059102    -0.70600
O818        O  0.50123797  0.09278309  0.35277603    -0.70400
O819        O  0.97786323  0.18849834  0.39437407    -0.70000
O820        O  0.94510412  0.09331672  0.30303088    -0.70600
O821        O  0.92410006  0.16873393  0.37364059    -0.70200
O822        O  0.52526474  0.14772428  0.37247550    -0.70800
O823        O  0.94102822  0.08305755  0.45162391    -0.70200
O824        O  0.92017828  0.02600200  0.34997603    -0.71000
O825        O  0.98864386  0.13396842  0.43673296    -0.70400
O826        O  0.89792876  0.01883012  0.39796020    -0.70800
O827        O  0.86065997  0.06417325  0.41507270    -0.70700
O828        O  0.85772386  0.08819518  0.37010906    -0.70500
C829        C  0.92957780  0.10942508  0.29261501     0.81300
C830        C  0.52808588  0.12167247  0.36195542     0.81800
C831        C  0.95184684  0.19293282  0.38712812     0.80700
C832        C  0.97213383  0.10984736  0.45686532     0.81100
C833        C  0.90194273  0.50612986  0.37245693     0.82200
C834        C  0.84299526  0.06999003  0.39445361     0.81300
Zn835      Zn  0.87533510  0.42311511  0.89498953     1.49700
Zn836      Zn  0.79700261  0.38228301  0.91732865     1.49400
Zn837      Zn  0.81772323  0.42521764  0.85295092     1.49100
Zn838      Zn  0.82141229  0.35367481  0.85869397     1.49500
O839        O  0.82709196  0.39571339  0.88056800    -1.80000
O840        O  0.88046623  0.41013430  0.93907602    -0.70600
O841        O  0.77238464  0.41227143  0.91978920    -0.70400
O842        O  0.85920225  0.47561960  0.85171375    -0.70000
O843        O  0.82429155  0.38061810  0.95581684    -0.70600
O844        O  0.89622821  0.47575752  0.88747828    -0.70200
O845        O  0.77665361  0.42909339  0.87004928    -0.70800
O846        O  0.81630834  0.35875432  0.81220443    -0.70200
O847        O  0.75772267  0.33186628  0.91206391    -0.71000
O848        O  0.80976901  0.40647647  0.80857255    -0.70400
O849        O  0.77634318  0.30941095  0.87434033    -0.70800
O850        O  0.86648153  0.35040681  0.86415392    -0.70700
O851        O  0.90489773  0.40830256  0.87151412    -0.70500
C852        C  0.85743998  0.39152858  0.95966249     0.81300
C853        C  0.76387862  0.42588712  0.89737714     0.81800
C854        C  0.88761943  0.49180892  0.86761873     0.80700
C855        C  0.81170479  0.38072634  0.79608379     0.81100
C856        C  0.75351859  0.30600704  0.89500931     0.82200
C857        C  0.89826446  0.37675089  0.86610750     0.81300
Zn858      Zn  0.85166511  0.32122424  0.13862098     1.49700
Zn859      Zn  0.92380206  0.31848028  0.14212609     1.49400
Zn860      Zn  0.88032605  0.29732459  0.07863661     1.49100
Zn861      Zn  0.91993461  0.37586055  0.10094351     1.49500
O862        O  0.89340611  0.32751383  0.11539080    -1.80000
O863        O  0.85753692  0.31482894  0.18485103    -0.70600
O864        O  0.92766753  0.27733647  0.12585136    -0.70400
O865        O  0.82983045  0.25814355  0.08449437    -0.70000
O866        O  0.90655027  0.31032974  0.18651039    -0.70600
O867        O  0.80765037  0.27598530  0.12314283    -0.70200
O868        O  0.90999505  0.27203555  0.07642640    -0.70800
O869        O  0.90683122  0.38057127  0.05697898    -0.70200
O870        O  0.97377756  0.35978677  0.14223647    -0.71000
O871        O  0.87923643  0.32467287  0.03966321    -0.70400
O872        O  0.97273164  0.39711892  0.10742249    -0.70800
O873        O  0.90485195  0.40516832  0.12452162    -0.70700
O874        O  0.84765768  0.36628932  0.13479296    -0.70500
C875        C  0.88049830  0.31075529  0.19994697     0.81300
C876        C  0.92390817  0.26386634  0.09883906     0.81800
C877        C  0.80422048  0.25341052  0.10225399     0.80700
C878        C  0.88945917  0.35771719  0.03598243     0.81100
C879        C  0.98938872  0.38826938  0.12639597     0.82200
C880        C  0.87358275  0.39821363  0.13183944     0.81300
Zn881      Zn  0.70576961  0.08725750  0.13983372     1.49700
Zn882      Zn  0.62471916  0.04661705  0.15207099     1.49400
Zn883      Zn  0.65381588  0.08560944  0.08698899     1.49100
Zn884      Zn  0.65708155  0.01531070  0.10458850     1.49500
O885        O  0.66033569  0.05895261  0.12035614    -1.80000
O886        O  0.70325764  0.08115056  0.18672984    -0.70600
O887        O  0.60248656  0.07745377  0.14897934    -0.70400
O888        O  0.69924144  0.13443443  0.08262382    -0.70000
O889        O  0.64463458  0.05086597  0.19503556    -0.70600
O890        O  0.72517501  0.13827765  0.12837196    -0.70200
O891        O  0.61684736  0.09865520  0.10071635    -0.70800
O892        O  0.63900282  0.00683163  0.06135235    -0.70200
O893        O  0.58712288  0.49616567  0.14495477    -0.71000
O894        O  0.63659527  0.05476639  0.04657207    -0.70400
O895        O  0.61821049  0.47175289  0.12621095    -0.70800
O896        O  0.70565949  0.01915688  0.10191480    -0.70700
O897        O  0.73979875  0.07323863  0.12231135    -0.70500
C898        C  0.67651513  0.06559257  0.20496795     0.81300
C899        C  0.60062024  0.09527342  0.12640826     0.81800
C900        C  0.72235859  0.15240631  0.10348413     0.80700
C901        C  0.63163356  0.02344336  0.04128808     0.81100
C902        C  0.58920643  0.46920481  0.13612336     0.82200
C903        C  0.73617918  0.04569473  0.10833818     0.81300
Zn904      Zn  0.56272405  0.38985097  0.85576191     1.49700
Zn905      Zn  0.56475219  0.45005775  0.89755560     1.49400
Zn906      Zn  0.60433310  0.41176493  0.92005440     1.49100
Zn907      Zn  0.63462019  0.46466408  0.86124753     1.49500
O908        O  0.59215111  0.42902941  0.88323889    -1.80000
O909        O  0.51225484  0.37986844  0.85489633    -0.70600
O910        O  0.57673335  0.46770629  0.94177922    -0.70400
O911        O  0.57408398  0.35720676  0.92229974    -0.70000
O912        O  0.51214295  0.41768147  0.89012294    -0.70600
O913        O  0.55918296  0.34549666  0.87217793    -0.70200
O914        O  0.60529847  0.44041095  0.95861616    -0.70800
O915        O  0.67821344  0.46326655  0.87781566    -0.70200
O916        O  0.58035230  0.99483341  0.87478095    -0.71000
O917        O  0.65450237  0.42216064  0.91518144    -0.70400
O918        O  0.63792134  0.01347996  0.86571155    -0.70800
O919        O  0.63044999  0.45258117  0.81477923    -0.70700
O920        O  0.58147170  0.39906903  0.81175146    -0.70500
C921        C  0.49600286  0.39207392  0.87090715     0.81300
C922        C  0.59456648  0.46278099  0.96251799     0.81800
C923        C  0.56150468  0.33551390  0.89935994     0.80700
C924        C  0.68076996  0.44341271  0.89831634     0.81100
C925        C  0.61187476  0.01936237  0.86843040     0.82200
C926        C  0.60814211  0.42555844  0.79904305     0.81300
Zn927      Zn  0.58612477  0.15446830  0.91089053     1.49700
Zn928      Zn  0.58848541  0.20764416  0.85827091     1.49400
Zn929      Zn  0.54840224  0.12680091  0.84474561     1.49100
Zn930      Zn  0.51588028  0.15783044  0.89308008     1.49500
O931        O  0.55989157  0.16159197  0.87721039    -1.80000
O932        O  0.63516689  0.19970586  0.91578217    -0.70600
O933        O  0.58519509  0.20649980  0.81096503    -0.70400
O934        O  0.57844466  0.10379775  0.84865271    -0.70000
O935        O  0.63904575  0.22704506  0.87078646    -0.70600
O936        O  0.59940907  0.11769963  0.89695717    -0.70200
O937        O  0.55614972  0.14811315  0.80193079    -0.70800
O938        O  0.97256895  0.11951139  0.87065726    -0.70200
O939        O  0.57365331  0.24114779  0.87572457    -0.71000
O940        O  0.99699475  0.08950882  0.84951329    -0.70400
O941        O  0.51972571  0.20644702  0.89640932    -0.70800
O942        O  0.50670405  0.13882601  0.93623706    -0.70700
O943        O  0.55468749  0.13665606  0.95125147    -0.70500
C944        C  0.65314551  0.22348862  0.89533193     0.81300
C945        C  0.57137355  0.18011874  0.79226307     0.81800
C946        C  0.59614809  0.10171126  0.87118298     0.80700
C947        C  0.96992575  0.09123281  0.85882844     0.81100
C948        C  0.54603664  0.23714221  0.88994558     0.76200
C949        C  0.52318307  0.13139895  0.95640568     0.81300
Zn950      Zn  0.96464061  0.13523658  0.13509615     1.49700
Zn951      Zn  0.88945462  0.06398340  0.14253760     1.49400
Zn952      Zn  0.91085475  0.10421832  0.07763753     1.49100
Zn953      Zn  0.94864937  0.06430628  0.10056423     1.49500
O954        O  0.92828383  0.09239972  0.11437285    -1.80000
O955        O  0.95427098  0.13163184  0.18171021    -0.70600
O956        O  0.84528879  0.06121964  0.12659890    -0.70400
O957        O  0.92050469  0.15421417  0.08229783    -0.70000
O958        O  0.90028735  0.08344048  0.18616691    -0.70600
O959        O  0.96253167  0.17868215  0.11873525    -0.70200
O960        O  0.85634078  0.07338804  0.07589826    -0.70800
O961        O  0.96662002  0.07607797  0.05616424    -0.70200
O962        O  0.87823789  0.01303821  0.14398349    -0.71000
O963        O  0.93983561  0.10511335  0.03917845    -0.70400
O964        O  0.91541049  0.01177587  0.10862510    -0.70800
O965        O  0.49322021  0.07968995  0.12370826    -0.70700
O966        O  0.51308231  0.13791683  0.12969669    -0.70500
C967        C  0.92760056  0.10985499  0.19813469     0.81300
C968        C  0.83496543  0.06212572  0.09919664     0.81800
C969        C  0.94192061  0.18076663  0.09873726     0.80700
C970        C  0.96204034  0.09412187  0.03534161     0.81100
C971        C  0.88983160  0.99616371  0.12806821     0.82200
C972        C  0.51832172  0.11137701  0.12849390     0.81300
C973        C  0.98455867  0.10456587  0.00777606    -0.09100
C974        C  0.50432924  0.11624551  0.98534623    -0.10700
C975        C  0.55091967  0.29864918  0.90293743    -0.09100
C976        C  0.54555935  0.26878416  0.89908170    -0.10700
C977        C  0.61698326  0.05454621  0.86608344    -0.09100
C978        C  0.61117411  0.07894691  0.86777070    -0.10700
C979        C  0.60508180  0.48513329  0.99002666    -0.09100
C980        C  0.61671813  0.00486053  0.01235741    -0.10700
C981        C  0.57776255  0.11021652  0.12956579    -0.09100
C982        C  0.55335895  0.11606294  0.13086174    -0.10700
C983        C  0.76804915  0.04556706  0.09942507    -0.09100
C984        C  0.79803885  0.05123451  0.09566489    -0.10700
C985        C  0.52667642  0.41196279  0.13103500    -0.09100
C986        C  0.55683345  0.43571549  0.13477306    -0.10700
C987        C  0.74693290  0.18978766  0.09926484    -0.09100
C988        C  0.77124083  0.22022524  0.09963578    -0.10700
C989        C  0.86858440  0.42830810  0.13482861    -0.09100
C990        C  0.87463300  0.45856032  0.13285256    -0.10700
C991        C  0.94077673  0.21325260  0.09552499    -0.09100
C992        C  0.93463208  0.23756279  0.09460868    -0.10700
C993        C  0.72079911  0.27267494  0.89838538    -0.09100
C994        C  0.69053873  0.24804464  0.89947235    -0.10700
C995        C  0.93604628  0.05900447  0.85876036    -0.09100
C996        C  0.91164444  0.02900213  0.86216499    -0.10700
C997        C  0.71347989  0.44281870  0.90150269    -0.09100
C998        C  0.73787184  0.43683835  0.90207033    -0.10700
C999        C  0.95853549  0.37758613  0.86641608    -0.09100
C1000       C  0.92845962  0.37189446  0.86415644    -0.10700
C1001       C  0.86920389  0.38051702  0.98687128    -0.09100
C1002       C  0.87922384  0.36969749  0.00843482    -0.10700
C1003       C  0.92910327  0.11377861  0.25949389    -0.09100
C1004       C  0.92872338  0.11403952  0.23140815    -0.10700
C1005       C  0.57387082  0.18707802  0.73110520    -0.09100
C1006       C  0.57323772  0.18609308  0.75920523    -0.10700
C1007       C  0.99078976  0.11378479  0.48571891    -0.09100
C1008       C  0.51087134  0.12209649  0.50772493    -0.10700
C1009       C  0.61214179  0.42522875  0.76572092    -0.09100
C1010       C  0.61201294  0.42456068  0.73758187    -0.10700
C1011       C  0.55179904  0.27072227  0.59653329    -0.09100
C1012       C  0.55753361  0.30099005  0.59623124    -0.10700
C1013       C  0.62349932  0.05609699  0.63221453    -0.09100
C1014       C  0.61797897  0.08045792  0.62878879    -0.10700
C1015       C  0.68400943  0.06471603  0.26579047    -0.09100
C1016       C  0.68213769  0.06498974  0.23781298    -0.10700
C1017       C  0.61361134  0.48508443  0.51039871    -0.09100
C1018       C  0.62230750  0.00507245  0.48826205    -0.10700
C1019       C  0.56173233  0.12296907  0.36301333    -0.09100
C1020       C  0.58535972  0.11634795  0.36662591    -0.10700
C1021       C  0.80521062  0.05626347  0.39823171    -0.09100
C1022       C  0.77439607  0.04918518  0.39780657    -0.10700
C1023       C  0.88043178  0.30978470  0.26139388    -0.09100
C1024       C  0.87824705  0.30828664  0.23336057    -0.10700
C1025       C  0.87897508  0.43755744  0.36614221    -0.09100
C1026       C  0.88660929  0.46826736  0.36906840    -0.10700
C1027       C  0.94698913  0.25011579  0.39766463    -0.09100
C1028       C  0.95279740  0.22577069  0.39457971    -0.10700
C1029       C  0.53256544  0.41610030  0.36537644    -0.09100
C1030       C  0.56316610  0.43980165  0.36393948    -0.10700
C1031       C  0.77959677  0.22416812  0.40142666    -0.09100
C1032       C  0.75588599  0.19370985  0.40463860    -0.10700
C1033       C  0.81252171  0.37777685  0.73449142    -0.09100
C1034       C  0.81045785  0.37748843  0.76260288    -0.10700
C1035       C  0.73027604  0.27951987  0.59426080    -0.09100
C1036       C  0.69986478  0.25521787  0.59240746    -0.10700
C1037       C  0.94482953  0.06368601  0.63583103    -0.09100
C1038       C  0.92066156  0.03332345  0.63498409    -0.10700
C1039       C  0.72363245  0.44478431  0.60220039    -0.09100
C1040       C  0.74861734  0.44005508  0.59891654    -0.10700
C1041       C  0.93735202  0.37236568  0.63244395    -0.09100
C1042       C  0.96760773  0.37851875  0.62943375    -0.10700
C1043       C  0.89182905  0.37862600  0.48772707    -0.09100
C1044       C  0.88392289  0.39000042  0.51044508    -0.10700
Zn1045     Zn  0.88721031  0.92672698  0.60435591     1.49700
Zn1046     Zn  0.83019395  0.85629211  0.63839510     1.49400
Zn1047     Zn  0.82872756  0.92891005  0.64535135     1.49100
Zn1048     Zn  0.80994212  0.88896342  0.57996734     1.49500
O1049       O  0.83831130  0.89960039  0.61741237    -1.80000
O1050       O  0.91518920  0.91016383  0.62749321    -0.70600
O1051       O  0.82172274  0.85970681  0.68510290    -0.70400
O1052       O  0.86907603  0.97961432  0.64651645    -0.70000
O1053       O  0.87540549  0.85229078  0.63330031    -0.70600
O1054       O  0.90774362  0.97927428  0.61232312    -0.70200
O1055       O  0.81911537  0.90967460  0.68902939    -0.70800
O1056       O  0.78537626  0.91886313  0.57880043    -0.70200
O1057       O  0.78497201  0.81358647  0.62034673    -0.71000
O1058       O  0.78748190  0.93196060  0.62938417    -0.70400
O1059       O  0.76991838  0.83869422  0.58264752    -0.70800
O1060       O  0.83863766  0.88977192  0.54144191    -0.70700
O1061       O  0.89384030  0.91565393  0.56000099    -0.70500
C1062       C  0.90760598  0.87813607  0.63169760     0.81300
C1063       C  0.81774875  0.88232992  0.70125376     0.81800
C1064       C  0.89790489  0.99567741  0.63098314     0.80700
C1065       C  0.77547960  0.93024463  0.60216693     0.81100
C1066       C  0.76368488  0.81187286  0.59904834     0.82200
C1067       C  0.87166157  0.89960873  0.53829349     0.81300
Zn1068     Zn  0.88240282  0.78844102  0.35956671     1.49700
Zn1069     Zn  0.85866324  0.83651860  0.39604627     1.49400
Zn1070     Zn  0.93395054  0.84186343  0.41129508     1.49100
Zn1071     Zn  0.92077821  0.86885883  0.34658854     1.49500
O1072       O  0.89908495  0.83398946  0.37893791    -1.80000
O1073       O  0.83522716  0.75379953  0.37809109    -0.70600
O1074       O  0.86948699  0.85453774  0.43944916    -0.70400
O1075       O  0.93864422  0.79716621  0.41560007    -0.70000
O1076       O  0.81424808  0.78695865  0.39895793    -0.70600
O1077       O  0.91540828  0.77065110  0.37016305    -0.70200
O1078       O  0.92176063  0.85988699  0.45210176    -0.70800
O1079       O  0.97410434  0.89126696  0.34785269    -0.70200
O1080       O  0.85367374  0.87618420  0.37586216    -0.71000
O1081       O  0.98313380  0.87859677  0.39592880    -0.70400
O1082       O  0.90791599  0.90638317  0.35434170    -0.70800
O1083       O  0.90364930  0.84795083  0.30399668    -0.70700
O1084       O  0.87733338  0.78961997  0.31259355    -0.70500
C1085       C  0.81103761  0.75668668  0.39245672     0.81300
C1086       C  0.89476590  0.86348057  0.45854071     0.81800
C1087       C  0.93334128  0.77407905  0.39452732     0.80700
C1088       C  0.99482469  0.89382673  0.36977533     0.81100
C1089       C  0.87958879  0.90482239  0.36472393     0.82200
C1090       C  0.88718549  0.81592200  0.29422372     0.81300
Zn1091     Zn  0.69632921  0.57979047  0.41959825     1.49700
Zn1092     Zn  0.67683605  0.60302531  0.35623569     1.49400
Zn1093     Zn  0.67176133  0.52704514  0.36097121     1.49100
Zn1094     Zn  0.61806558  0.54322131  0.39703211     1.49500
O1095       O  0.66648295  0.56352890  0.38311285    -1.80000
O1096       O  0.72073203  0.63449661  0.42279501    -0.70600
O1097       O  0.68466225  0.59290265  0.31217287    -0.70400
O1098       O  0.71750308  0.52825591  0.37568886    -0.70000
O1099       O  0.71831202  0.64710281  0.37280881    -0.70600
O1100       O  0.73609367  0.56934850  0.41328133    -0.70200
O1101       O  0.67718551  0.53817116  0.31464434    -0.70800
O1102       O  0.58833113  0.99976801  0.37260811    -0.70200
O1103       O  0.63671763  0.61367034  0.35554924    -0.71000
O1104       O  0.62565252  0.97879369  0.36585264    -0.70400
O1105       O  0.59855316  0.57630864  0.39072833    -0.70800
O1106       O  0.61199575  0.52413085  0.44066302    -0.70700
O1107       O  0.66798522  0.54998074  0.45752550    -0.70500
C1108       C  0.73015725  0.65665693  0.40024042     0.81300
C1109       C  0.68239526  0.56540532  0.29916397     0.81800
C1110       C  0.74069336  0.54822235  0.39577893     0.80700
C1111       C  0.59413673  0.97431728  0.36703967     0.81100
C1112       C  0.60823119  0.60180267  0.37148677     0.82200
C1113       C  0.63465408  0.52801404  0.46119890     0.81300
Zn1114     Zn  0.57864729  0.94498704  0.64986613     1.49700
Zn1115     Zn  0.61773228  0.90277576  0.63937091     1.49400
Zn1116     Zn  0.56822425  0.90486907  0.58526436     1.49100
Zn1117     Zn  0.64258277  0.97465584  0.60293782     1.49500
O1118       O  0.60168463  0.93149300  0.61882896    -1.80000
O1119       O  0.59312097  0.94094683  0.69327173    -0.70600
O1120       O  0.58656026  0.85204519  0.62622524    -0.70400
O1121       O  0.51784194  0.89071821  0.59935773    -0.70000
O1122       O  0.61847311  0.90764511  0.68680296    -0.70600
O1123       O  0.52565948  0.91374521  0.64703602    -0.70200
O1124       O  0.56523729  0.85641753  0.58023482    -0.70800
O1125       O  0.63386012  0.98248199  0.55923705    -0.70200
O1126       O  0.66692074  0.91719098  0.62386189    -0.71000
O1127       O  0.58200364  0.93585882  0.54494144    -0.70400
O1128       O  0.68712368  0.97049184  0.60194620    -0.70800
O1129       O  0.64750070  0.51889367  0.62358902    -0.70700
O1130       O  0.59205501  0.99554870  0.64221173    -0.70500
C1131       C  0.60796202  0.92446806  0.70431149     0.81300
C1132       C  0.57010714  0.83825275  0.60098040     0.81800
C1133       C  0.50547926  0.89459114  0.62515543     0.80700
C1134       C  0.60937498  0.96647114  0.53935928     0.81100
C1135       C  0.69116872  0.94441568  0.60976749     0.82200
C1136       C  0.62139603  0.52211818  0.63339321     0.81300
Zn1137     Zn  0.53371123  0.67143056  0.63657280     1.49700
Zn1138     Zn  0.58569366  0.69496598  0.57670140     1.49400
Zn1139     Zn  0.60871763  0.67420295  0.64019129     1.49100
Zn1140     Zn  0.54755229  0.61667230  0.59920872     1.49500
O1141       O  0.56920041  0.66511648  0.61350905    -1.80000
O1142       O  0.53341820  0.71551549  0.62041254    -0.70600
O1143       O  0.64064855  0.72066608  0.57416295    -0.70400
O1144       O  0.59999249  0.68333191  0.68458926    -0.70000
O1145       O  0.57379652  0.73373538  0.58211452    -0.70600
O1146       O  0.54678778  0.67952821  0.68248492    -0.70200
O1147       O  0.65337698  0.71516862  0.62343025    -0.70800
O1148       O  0.57937665  0.59577322  0.60509200    -0.70200
O1149       O  0.55673437  0.66695564  0.53829193    -0.71000
O1150       O  0.61746018  0.63278425  0.64041719    -0.70400
O1151       O  0.52855838  0.61116716  0.55570252    -0.70800
O1152       O  0.00384365  0.58738292  0.62347566    -0.70700
O1153       O  0.98505587  0.62577848  0.63408949    -0.70500
C1154       C  0.55237742  0.73803351  0.59950623     0.81300
C1155       C  0.66287295  0.72878000  0.59649888     0.81800
C1156       C  0.57374629  0.68368387  0.69775980     0.80700
C1157       C  0.60470488  0.60442156  0.62426232     0.81100
C1158       C  0.53369582  0.63391550  0.53483882     0.82200
C1159       C  0.97950608  0.59401222  0.63148553     0.81300
Zn1160     Zn  0.90896113  0.61948797  0.35778288     1.49700
Zn1161     Zn  0.95037557  0.57912909  0.34625136     1.49400
Zn1162     Zn  0.98104652  0.64323731  0.39316746     1.49100
Zn1163     Zn  0.91030706  0.56886836  0.41116115     1.49500
O1164       O  0.93732750  0.60245443  0.37760182    -1.80000
O1165       O  0.91405877  0.62096675  0.31058960    -0.70600
O1166       O  0.50122591  0.59277779  0.35277762    -0.70400
O1167       O  0.97785194  0.68849346  0.39437148    -0.70000
O1168       O  0.94509225  0.59330764  0.30303089    -0.70600
O1169       O  0.92408931  0.66872754  0.37363654    -0.70200
O1170       O  0.52525172  0.64771876  0.37247765    -0.70800
O1171       O  0.94101729  0.58305763  0.45162931    -0.70200
O1172       O  0.92016860  0.52599537  0.34998261    -0.71000
O1173       O  0.98863298  0.63396718  0.43673660    -0.70400
O1174       O  0.89792169  0.51882696  0.39796772    -0.70800
O1175       O  0.86064956  0.56417009  0.41507444    -0.70700
O1176       O  0.85771335  0.58819034  0.37010966    -0.70500
C1177       C  0.92956793  0.60941756  0.29261405     0.81300
C1178       C  0.52807337  0.62166747  0.36195706     0.81800
C1179       C  0.95183602  0.69292739  0.38712316     0.80700
C1180       C  0.97212288  0.60984777  0.45687027     0.81100
C1181       C  0.90194967  0.00613473  0.37244847     0.82200
C1182       C  0.84298504  0.56998702  0.39445512     0.81300
Zn1183     Zn  0.87531695  0.92311043  0.89497938     1.49700
Zn1184     Zn  0.79699002  0.88227945  0.91733298     1.49400
Zn1185     Zn  0.81769687  0.92521566  0.85295474     1.49100
Zn1186     Zn  0.82138962  0.85367236  0.85869012     1.49500
O1187       O  0.82707088  0.89571041  0.88056644    -1.80000
O1188       O  0.88045720  0.91012541  0.93906149    -0.70600
O1189       O  0.77236194  0.91225718  0.91979857    -0.70400
O1190       O  0.85917346  0.97562305  0.85172427    -0.70000
O1191       O  0.82428781  0.88062226  0.95581687    -0.70600
O1192       O  0.89620633  0.97575319  0.88747750    -0.70200
O1193       O  0.77662020  0.92907772  0.87005901    -0.70800
O1194       O  0.81628051  0.85875313  0.81220184    -0.70200
O1195       O  0.75771551  0.83186051  0.91207544    -0.71000
O1196       O  0.80974601  0.90647857  0.80857273    -0.70400
O1197       O  0.77632535  0.80940739  0.87434154    -0.70800
O1198       O  0.86646049  0.85040572  0.86414309    -0.70700
O1199       O  0.90487592  0.90830367  0.87149020    -0.70500
C1200       C  0.85743628  0.89152717  0.95965411     0.81300
C1201       C  0.76384734  0.92586765  0.89738842     0.81800
C1202       C  0.88759361  0.99180935  0.86762630     0.80700
C1203       C  0.81167968  0.88072766  0.79608232     0.81100
C1204       C  0.75350781  0.80600205  0.89501831     0.82200
C1205       C  0.89824346  0.87675146  0.86608805     0.81300
Zn1206     Zn  0.85167800  0.82122940  0.13860578     1.49700
Zn1207     Zn  0.92381080  0.81847579  0.14210663     1.49400
Zn1208     Zn  0.88032733  0.79732271  0.07862069     1.49100
Zn1209     Zn  0.91994836  0.87586013  0.10092628     1.49500
O1210       O  0.89341582  0.82751374  0.11537413    -1.80000
O1211       O  0.85755311  0.81483616  0.18483506    -0.70600
O1212       O  0.92766520  0.77732669  0.12582887    -0.70400
O1213       O  0.82983212  0.75814241  0.08448330    -0.70000
O1214       O  0.90656169  0.81032819  0.18649283    -0.70600
O1215       O  0.80765909  0.77598955  0.12313311    -0.70200
O1216       O  0.90999163  0.77203059  0.07640447    -0.70800
O1217       O  0.90684212  0.88057094  0.05696286    -0.70200
O1218       O  0.97379076  0.85977768  0.14221252    -0.71000
O1219       O  0.87923518  0.82467127  0.03964961    -0.70400
O1220       O  0.97274620  0.89711281  0.10740109    -0.70800
O1221       O  0.90487138  0.90517264  0.12450573    -0.70700
O1222       O  0.84767585  0.86629787  0.13477706    -0.70500
C1223       C  0.88051253  0.81075876  0.19993035     0.81300
C1224       C  0.92390223  0.76385687  0.09881602     0.81800
C1225       C  0.80422530  0.75341188  0.10224575     0.80700
C1226       C  0.88946351  0.85771672  0.03596823     0.81100
C1227       C  0.98940332  0.88826000  0.12637161     0.82200
C1228       C  0.87360327  0.89822136  0.13182378     0.81300
Zn1229     Zn  0.70575937  0.58726073  0.13984263     1.49700
Zn1230     Zn  0.62470756  0.54663378  0.15207727     1.49400
Zn1231     Zn  0.65381385  0.58561112  0.08699095     1.49100
Zn1232     Zn  0.65706489  0.51530879  0.10461363     1.49500
O1233       O  0.66032532  0.55895841  0.12036620    -1.80000
O1234       O  0.70324411  0.58115455  0.18673776    -0.70600
O1235       O  0.60247877  0.57747172  0.14897202    -0.70400
O1236       O  0.69924164  0.63443553  0.08262736    -0.70000
O1237       O  0.64462036  0.55088731  0.19504312    -0.70600
O1238       O  0.72517154  0.63828125  0.12837787    -0.70200
O1239       O  0.61683987  0.59865667  0.10070385    -0.70800
O1240       O  0.63899216  0.50682195  0.06137670    -0.70200
O1241       O  0.58713878  0.99614862  0.14494087    -0.71000
O1242       O  0.63660569  0.55476233  0.04657681    -0.70400
O1243       O  0.61822831  0.97174567  0.12617911    -0.70800
O1244       O  0.70563672  0.51914436  0.10194515    -0.70700
O1245       O  0.73978372  0.57323420  0.12232347    -0.70500
C1246       C  0.67650037  0.56560496  0.20497553     0.81300
C1247       C  0.60061131  0.59528233  0.12639383     0.81800
C1248       C  0.72235831  0.65240821  0.10348770     0.80700
C1249       C  0.63163728  0.52343499  0.04130261     0.81100
C1250       C  0.58922374  0.96919185  0.13609840     0.82200
C1251       C  0.73615868  0.54568329  0.10835955     0.81300
Zn1252     Zn  0.56270252  0.88984318  0.85575731     1.49700
Zn1253     Zn  0.56472982  0.95005644  0.89754149     1.49400
Zn1254     Zn  0.60429299  0.91175160  0.92005779     1.49100
Zn1255     Zn  0.63460139  0.96465232  0.86125638     1.49500
O1256       O  0.59212426  0.92901914  0.88323743    -1.80000
O1257       O  0.51223440  0.87986516  0.85488301    -0.70600
O1258       O  0.57671260  0.96771591  0.94176376    -0.70400
O1259       O  0.57403481  0.85719384  0.92230379    -0.70000
O1260       O  0.51212067  0.91768210  0.89010480    -0.70600
O1261       O  0.55915554  0.84548690  0.87217747    -0.70200
O1262       O  0.60525880  0.94040615  0.95861342    -0.70800
O1263       O  0.67818469  0.96324439  0.87783205    -0.70200
O1264       O  0.58036841  0.49484075  0.87480744    -0.71000
O1265       O  0.65446033  0.92213535  0.91519412    -0.70400
O1266       O  0.63793175  0.51348894  0.86570247    -0.70800
O1267       O  0.63044298  0.95257601  0.81478881    -0.70700
O1268       O  0.58146356  0.89906556  0.81175014    -0.70500
C1269       C  0.49598182  0.89207376  0.87088938     0.81300
C1270       C  0.59453776  0.96278596  0.96250767     0.81800
C1271       C  0.56146548  0.83550224  0.89936223     0.80700
C1272       C  0.68073289  0.94338588  0.89833271     0.81100
C1273       C  0.61188536  0.51936955  0.86843947     0.82200
C1274       C  0.60813899  0.92555625  0.79904787     0.81300
Zn1275     Zn  0.58611449  0.65446447  0.91089803     1.49700
Zn1276     Zn  0.58848216  0.70765536  0.85828248     1.49400
Zn1277     Zn  0.54841941  0.62681631  0.84474411     1.49100
Zn1278     Zn  0.51587331  0.65782720  0.89307611     1.49500
O1279       O  0.55989155  0.66159795  0.87721432    -1.80000
O1280       O  0.63515729  0.69969943  0.91579509    -0.70600
O1281       O  0.58520477  0.70652041  0.81097467    -0.70400
O1282       O  0.57846299  0.60381493  0.84865281    -0.70000
O1283       O  0.63903834  0.72705530  0.87080791    -0.70600
O1284       O  0.59939986  0.61769497  0.89696655    -0.70200
O1285       O  0.55617484  0.64813547  0.80193301    -0.70800
O1286       O  0.97257434  0.61951064  0.87064084    -0.70200
O1287       O  0.57363871  0.74115118  0.87573595    -0.71000
O1288       O  0.99701443  0.58951913  0.84950111    -0.70400
O1289       O  0.51970712  0.70643884  0.89640851    -0.70800
O1290       O  0.50668443  0.63881235  0.93623039    -0.70700
O1291       O  0.55466687  0.63664605  0.95125417    -0.70500
C1292       C  0.65313656  0.72348889  0.89534999     0.81300
C1293       C  0.57139387  0.68014217  0.79226915     0.81800
C1294       C  0.59615264  0.60171706  0.87118892     0.80700
C1295       C  0.96994041  0.59123611  0.85881210     0.81100
C1296       C  0.54601572  0.73713773  0.88995103     0.76200
C1297       C  0.52315954  0.63138424  0.95640208     0.81300
Zn1298     Zn  0.96461765  0.63522365  0.13508685     1.49700
Zn1299     Zn  0.88943703  0.56397375  0.14254026     1.49400
Zn1300     Zn  0.91082321  0.60419311  0.07763237     1.49100
Zn1301     Zn  0.94862452  0.56428980  0.10055948     1.49500
O1302       O  0.92826016  0.59238414  0.11436848    -1.80000
O1303       O  0.95425752  0.63162682  0.18170424    -0.70600
O1304       O  0.84526878  0.56120677  0.12660700    -0.70400
O1305       O  0.92047486  0.65419019  0.08228490    -0.70000
O1306       O  0.90027590  0.58343476  0.18616794    -0.70600
O1307       O  0.96250569  0.67866376  0.11871895    -0.70200
O1308       O  0.85630878  0.57336087  0.07590314    -0.70800
O1309       O  0.96658962  0.57605593  0.05615689    -0.70200
O1310       O  0.87821990  0.51303008  0.14399013    -0.71000
O1311       O  0.93979824  0.60508360  0.03916968    -0.70400
O1312       O  0.91538555  0.51176061  0.10862805    -0.70800
O1313       O  0.49320094  0.57967994  0.12369734    -0.70700
O1314       O  0.51305875  0.63790686  0.12967904    -0.70500
C1315       C  0.92759029  0.60985078  0.19813243     0.81300
C1316       C  0.83493897  0.56210479  0.09920566     0.81800
C1317       C  0.94189416  0.68074560  0.09871999     0.80700
C1318       C  0.96200563  0.59409552  0.03533308     0.81100
C1319       C  0.88980972  0.49615248  0.12807470     0.82200
C1320       C  0.51830165  0.61136924  0.12847612     0.81300
C1321       C  0.98452451  0.60454130  0.00776675    -0.09100
C1322       C  0.50429820  0.61622463  0.98533928    -0.10700
C1323       C  0.55088125  0.79863767  0.90294095    -0.09100
C1324       C  0.54552767  0.76877461  0.89908641    -0.10700
C1325       C  0.61698845  0.55455151  0.86609161    -0.09100
C1326       C  0.61117793  0.57895160  0.86777849    -0.10700
C1327       C  0.60505830  0.98514335  0.99001380    -0.09100
C1328       C  0.61673306  0.50484998  0.01237105    -0.10700
C1329       C  0.57774973  0.61022147  0.12954186    -0.09100
C1330       C  0.55334144  0.61606114  0.13083736    -0.10700
C1331       C  0.76802427  0.54554879  0.09944495    -0.09100
C1332       C  0.79801205  0.55121285  0.09567977    -0.10700
C1333       C  0.52669292  0.91195001  0.13100714    -0.09100
C1334       C  0.55685147  0.93570158  0.13474435    -0.10700
C1335       C  0.74693579  0.68978889  0.09926557    -0.09100
C1336       C  0.77124469  0.72022591  0.09963270    -0.10700
C1337       C  0.86860835  0.92831816  0.13481452    -0.09100
C1338       C  0.87465635  0.95857075  0.13284187    -0.10700
C1339       C  0.94075509  0.71323296  0.09550159    -0.09100
C1340       C  0.93461771  0.73754779  0.09458381    -0.10700
C1341       C  0.72079071  0.77266927  0.89840034    -0.09100
C1342       C  0.69053031  0.74804060  0.89949116    -0.10700
C1343       C  0.93606614  0.55900345  0.85874282    -0.09100
C1344       C  0.91166926  0.52899993  0.86215171    -0.10700
C1345       C  0.71343960  0.94278616  0.90152208    -0.09100
C1346       C  0.73783389  0.93680932  0.90208642    -0.10700
C1347       C  0.95851521  0.87758775  0.86639440    -0.09100
C1348       C  0.92843928  0.87189635  0.86413433    -0.10700
C1349       C  0.86920516  0.88051764  0.98686042    -0.09100
C1350       C  0.87922711  0.86969826  0.00842257    -0.10700
C1351       C  0.92909631  0.61377337  0.25949236    -0.09100
C1352       C  0.92871734  0.61403673  0.23140646    -0.10700
C1353       C  0.57389331  0.68709884  0.73111139    -0.09100
C1354       C  0.57326271  0.68611956  0.75921159    -0.10700
C1355       C  0.99077885  0.61378728  0.48572476    -0.09100
C1356       C  0.51086038  0.62209928  0.50773114    -0.10700
C1357       C  0.61214955  0.92523269  0.76572684    -0.09100
C1358       C  0.61203080  0.92457306  0.73758787    -0.10700
C1359       C  0.55181605  0.77073643  0.59654856    -0.09100
C1360       C  0.55755288  0.80100527  0.59624691    -0.10700
C1361       C  0.62346853  0.55607078  0.63221563    -0.09100
C1362       C  0.61795140  0.58043412  0.62879181    -0.10700
C1363       C  0.68399477  0.56472318  0.26579695    -0.09100
C1364       C  0.68212172  0.56499965  0.23782006    -0.10700
C1365       C  0.61361978  0.98508884  0.51039861    -0.09100
C1366       C  0.62229927  0.50507104  0.48826484    -0.10700
C1367       C  0.56171984  0.62296520  0.36301514    -0.09100
C1368       C  0.58534781  0.61634532  0.36662931    -0.10700
C1369       C  0.80520130  0.55626337  0.39823437    -0.09100
C1370       C  0.77438750  0.54918773  0.39780998    -0.10700
C1371       C  0.88044210  0.80978878  0.26137781    -0.09100
C1372       C  0.87826138  0.80829104  0.23334409    -0.10700
C1373       C  0.87897452  0.93756117  0.36612825    -0.09100
C1374       C  0.88661233  0.96827190  0.36905645    -0.10700
C1375       C  0.94697840  0.75011122  0.39765215    -0.09100
C1376       C  0.95278682  0.72576626  0.39457061    -0.10700
C1377       C  0.53256442  0.91610229  0.36537455    -0.09100
C1378       C  0.56316621  0.93980188  0.36393787    -0.10700
C1379       C  0.77959277  0.72416963  0.40142104    -0.09100
C1380       C  0.75588205  0.69371236  0.40463905    -0.10700
C1381       C  0.81250318  0.87777774  0.73448932    -0.09100
C1382       C  0.81043491  0.87749145  0.76260076    -0.10700
C1383       C  0.73027733  0.77950382  0.59426712    -0.09100
C1384       C  0.69986564  0.75520235  0.59241193    -0.10700
C1385       C  0.94482417  0.56369516  0.63584605    -0.09100
C1386       C  0.92065771  0.53333144  0.63499834    -0.10700
C1387       C  0.72364855  0.94479733  0.60218897    -0.09100
C1388       C  0.74862889  0.94006147  0.59890315    -0.10700
C1389       C  0.93736953  0.87238288  0.63245820    -0.09100
C1390       C  0.96762823  0.87854293  0.62945204    -0.10700
C1391       C  0.89181446  0.87861244  0.48771457    -0.09100
C1392       C  0.88390669  0.88998387  0.51043336    -0.10700
loop_ 
_geom_bond_atom_site_label_1 
_geom_bond_atom_site_label_2 
_geom_bond_distance 
_geom_bond_site_symmetry_2 
_ccdc_geom_bond_type 
Zn1           O5   1.917       .  S
Zn1           O6   1.966       .  S
Zn1          O10   2.014       .  S
Zn1          O17   2.018       .  S
Zn2           O5   1.952       .  S
Zn2           O7   2.058       .  S
Zn2           O9   2.059       .  S
Zn2          O13   2.057       .  S
Zn3           O5   1.932       .  S
Zn3           O8   2.008       .  S
Zn3          O11   2.014       .  S
Zn3          O14   1.982       .  S
Zn4           O5   1.941       .  S
Zn4          O12   2.047       .  S
Zn4          O15   1.994       .  S
Zn4          O16   2.054       .  S
O6           C18   1.269       .  A
O7           C19   1.277       .  A
O8           C20   1.269       .  A
O9           C18   1.279       .  A
O10          C20   1.274       .  A
O11          C19   1.272       .  A
O12          C21   1.279       .  A
O13          C22   1.279       .  A
O14          C21   1.271       .  A
O15          C22   1.270       .  A
O16          C23   1.277       .  A
O17          C23   1.270       .  A
C18         C345   1.430       .  S
C19         C337   1.445       .  S
C20         C690   1.431       .  S
C21         C344   1.431       .  S
C22         C339   1.438       .  S
C23         C348   1.448       .  S
Zn24         O28   1.916       .  S
Zn24         O29   1.994       .  S
Zn24         O33   1.989       .  S
Zn24         O40   2.038       .  S
Zn25         O28   1.946       .  S
Zn25         O30   1.986       .  S
Zn25         O32   2.045       .  S
Zn25         O36   2.035       .  S
Zn26         O28   1.959       .  S
Zn26         O31   2.054       .  S
Zn26         O34   2.086       .  S
Zn26         O37   2.024       .  S
Zn27         O28   1.919       .  S
Zn27         O35   2.007       .  S
Zn27         O38   1.990       .  S
Zn27         O39   2.014       .  S
O29          C41   1.271       .  A
O30          C42   1.267       .  A
O31          C43   1.280       .  A
O32          C41   1.277       .  A
O33          C43   1.272       .  A
O34          C42   1.282       .  A
O35          C44   1.272       .  A
O36          C45   1.277       .  A
O37          C44   1.274       .  A
O38          C45   1.271       .  A
O39          C46   1.271       .  A
O40          C46   1.274       .  A
C41         C335   1.436       .  S
C42         C347   1.447       .  S
C43         C331   1.435       .  S
C44        C1029   1.433       .  S
C45         C329   1.432       .  S
C46         C327   1.441       .  S
Zn47         O51   1.932       .  S
Zn47         O52   2.059       .  S
Zn47         O56   2.003       .  S
Zn47         O63   2.059       .  S
Zn48         O51   1.926       .  S
Zn48         O53   2.008       .  S
Zn48         O55   1.986       .  S
Zn48         O59   2.008       .  S
Zn49         O51   1.949       .  S
Zn49         O54   2.058       .  S
Zn49         O57   2.037       .  S
Zn49        O408   2.053   1_545  S
Zn50         O51   1.914       .  S
Zn50         O61   2.015       .  S
Zn50         O62   2.017       .  S
Zn50        O406   1.968   1_545  S
O52          C64   1.281       .  A
O53          C65   1.272       .  A
O54          C66   1.279       .  A
O55          C64   1.272       .  A
O56          C66   1.271       .  A
O57          C65   1.275       .  A
O58        Zn398   1.968       .  S
O58          C67   1.268       .  A
O59          C68   1.269       .  A
O60        Zn397   2.053       .  S
O60          C67   1.279       .  A
O61          C68   1.273       .  A
O62          C69   1.271       .  A
O63          C69   1.278       .  A
C64         C336   1.435       .  S
C65         C319   1.437       .  S
C66         C326   1.441       .  S
C67         C334   1.429       .  S
C68         C324   1.432       .  S
C69         C322   1.449       .  S
Zn70         O74   1.917       .  S
Zn70         O75   2.010       .  S
Zn70         O79   1.999       .  S
Zn70         O86   1.993       .  S
Zn71         O74   1.922       .  S
Zn71         O76   1.998       .  S
Zn71         O78   2.049       .  S
Zn71         O82   2.005       .  S
Zn72         O74   1.962       .  S
Zn72         O77   2.036       .  S
Zn72         O80   2.047       .  S
Zn72         O83   2.091       .  S
Zn73         O74   1.943       .  S
Zn73         O81   1.984       .  S
Zn73         O84   2.024       .  S
Zn73        O433   2.020       .  S
O75          C87   1.271       .  A
O76          C88   1.273       .  A
O77          C89   1.275       .  A
O78          C87   1.275       .  A
O79          C89   1.270       .  A
O80          C88   1.279       .  A
O81          C90   1.267       .  A
O82          C91   1.272       .  A
O83          C90   1.282       .  A
O84          C91   1.274       .  A
O85        Zn421   2.020   1_545  S
O85          C92   1.275       .  A
O86         C440   1.272       .  A
C87         C314   1.443       .  S
C88         C316   1.435       .  S
C89        C1042   1.434   1_455  S
C90         C321   1.447       .  S
C91         C343   1.433       .  S
C92         O434   1.272   1_545  A
C92         C317   1.429       .  S
Zn93         O97   1.953       .  S
Zn93         O98   2.041       .  S
Zn93        O102   2.038       .  S
Zn93        O805   2.045   1_455  S
Zn94         O97   1.941       .  S
Zn94         O99   2.062       .  S
Zn94        O101   1.999       .  S
Zn94        O105   2.063       .  S
Zn95         O97   1.935       .  S
Zn95        O100   2.019       .  S
Zn95        O103   1.990       .  S
Zn95        O106   2.010       .  S
Zn96         O97   1.919       .  S
Zn96        O104   2.009       .  S
Zn96        O107   2.014       .  S
Zn96        O804   1.965       .  S
O98         C110   1.277       .  A
O99         C111   1.282       .  A
O100        C112   1.273       .  A
O101        C110   1.271       .  A
O102        C112   1.275       .  A
O103        C111   1.271       .  A
O104        C113   1.273       .  A
O105        C114   1.278       .  A
O106        C113   1.270       .  A
O107        C114   1.270       .  A
O108       Zn792   1.965       .  S
O108        C115   1.268       .  A
O109       Zn789   2.045       .  S
O109        C115   1.277       .  A
C110        C315   1.435       .  S
C111        C340   1.437       .  S
C112        C309   1.441       .  S
C113        C318   1.430       .  S
C114        C312   1.450       .  S
C115        C341   1.427       .  S
Zn116       O120   1.925       .  S
Zn116       O121   2.038       .  S
Zn116       O125   2.008       .  S
Zn116       O132   2.004       .  S
Zn117       O120   1.924       .  S
Zn117       O124   2.011       .  S
Zn117       O128   2.004       .  S
Zn117       O818   1.994       .  S
Zn118       O120   1.950       .  S
Zn118       O123   2.033       .  S
Zn118       O129   1.983       .  S
Zn118       O822   2.024       .  S
Zn119       O120   1.965       .  S
Zn119       O127   2.092       .  S
Zn119       O130   2.033       .  S
Zn119       O131   2.060       .  S
O121        C133   1.274       .  A
O122       Zn813   1.994   1_455  S
O122        C134   1.271       .  A
O123        C135   1.274       .  A
O124        C133   1.271       .  A
O125        C135   1.272       .  A
O126       Zn814   2.024   1_455  S
O126        C134   1.274       .  A
O127        C136   1.283       .  A
O128        C485   1.271       .  A
O129        C136   1.267       .  A
O130        C485   1.274       .  A
O131        C138   1.280       .  A
O132        C138   1.273       .  A
C133        C307   1.440       .  S
C134        C323   1.430       .  S
C135        C332   1.436       .  S
C136        C311   1.448       .  S
C137        O476   1.271       .  A
C137        O478   1.274       .  A
C137        C330   1.435       .  S
C138        C325   1.441       .  S
Zn139       O143   1.918       .  S
Zn139       O144   2.026       .  S
Zn139       O148   2.014       .  S
Zn139       O155   1.966       .  S
Zn140       O143   1.938       .  S
Zn140       O145   2.053       .  S
Zn140       O147   2.063       .  S
Zn140       O151   1.997       .  S
Zn141       O143   1.937       .  S
Zn141       O146   2.016       .  S
Zn141       O149   2.002       .  S
Zn141       O152   2.033       .  S
Zn142       O143   1.948       .  S
Zn142       O150   2.039       .  S
Zn142       O153   2.045       .  S
Zn142       O154   2.040       .  S
O144        C156   1.272       .  A
O145        C157   1.281       .  A
O146        C158   1.271       .  A
O147        C156   1.277       .  A
O148        C158   1.274       .  A
O149        C157   1.274       .  A
O150        C159   1.275       .  A
O151        C160   1.270       .  A
O152        C159   1.275       .  A
O153        C160   1.277       .  A
O154        C161   1.276       .  A
O155        C161   1.268       .  A
C156        C305   1.454       .  S
C157        C302   1.436       .  S
C158        C648   1.433       .  S
C159        C338   1.445       .  S
C160        C297   1.436       .  S
C161        C304   1.426       .  S
Zn162       O166   1.955       .  S
Zn162       O167   2.044       .  S
Zn162       O171   2.043       .  S
Zn162       O178   2.052       .  S
Zn163       O166   1.936       .  S
Zn163       O168   1.994       .  S
Zn163       O170   2.013       .  S
Zn163       O174   2.000       .  S
Zn164       O166   1.944       .  S
Zn164       O169   2.000       .  S
Zn164       O172   2.065       .  S
Zn164       O175   2.072       .  S
Zn165       O166   1.919       .  S
Zn165       O173   2.019       .  S
Zn165       O176   2.011       .  S
Zn165       O177   1.968       .  S
O167        C179   1.275       .  A
O168        C180   1.272       .  A
O169        C181   1.271       .  A
O170        C179   1.272       .  A
O171        C181   1.278       .  A
O172        C180   1.282       .  A
O173        C182   1.271       .  A
O174        C183   1.269       .  A
O175        C182   1.279       .  A
O176        C183   1.273       .  A
O177        C184   1.268       .  A
O178        C184   1.278       .  A
C179        C328   1.441       .  S
C180        C296   1.439       .  S
C181        C292   1.435       .  S
C182        C306   1.454       .  S
C183        C985   1.428       .  S
C184        C293   1.429       .  S
Zn185       O189   1.915       .  S
Zn185       O190   2.031       .  S
Zn185       O194   1.994       .  S
Zn185       O201   1.995       .  S
Zn186       O189   1.917       .  S
Zn186       O191   2.004       .  S
Zn186       O193   2.013       .  S
Zn186       O545   1.989   1_545  S
Zn187       O189   1.955       .  S
Zn187       O192   2.051       .  S
Zn187       O195   2.029       .  S
Zn187       O198   2.088       .  S
Zn188       O189   1.942       .  S
Zn188       O196   1.983       .  S
Zn188       O200   2.026       .  S
Zn188       O547   2.017   1_545  S
O190        C202   1.273       .  A
O191        C203   1.271       .  A
O192        C204   1.279       .  A
O193        C202   1.271       .  A
O194        C204   1.272       .  A
O195        C203   1.274       .  A
O196        C205   1.267       .  A
O197       Zn534   1.989       .  S
O197        C206   1.271       .  A
O198        C205   1.282       .  A
O199       Zn536   2.017       .  S
O199        C206   1.274       .  A
O200        C207   1.274       .  A
O201        C207   1.271       .  A
C202        C320   1.438       .  S
C203        C285   1.433       .  S
C204        C291   1.435       .  S
C205        C284   1.447       .  S
C206        C290   1.426       .  S
C207        C287   1.432       .  S
Zn208       O212   1.932       .  S
Zn208       O213   2.003       .  S
Zn208       O217   1.982       .  S
Zn208       O224   2.016       .  S
Zn209       O212   1.918       .  S
Zn209       O214   2.018       .  S
Zn209       O216   2.015       .  S
Zn209       O568   1.968       .  S
Zn210       O212   1.940       .  S
Zn210       O215   2.051       .  S
Zn210       O218   2.054       .  S
Zn210       O221   1.994       .  S
Zn211       O212   1.950       .  S
Zn211       O219   2.050       .  S
Zn211       O223   2.050       .  S
Zn211       O570   2.054       .  S
O213        C225   1.269   1_455  A
O214        C226   1.270       .  A
O215        C227   1.280       .  A
O216        C225   1.274   1_455  A
O217        C227   1.271       .  A
O218        C226   1.277       .  A
O219        C228   1.278       .  A
O220       Zn557   1.968       .  S
O220        C229   1.269   1_565  A
O221        C228   1.270       .  A
O222       Zn559   2.054   1_545  S
O222        C229   1.279       .  A
O223        C230   1.276       .  A
O224        C230   1.272       .  A
C225        C999   1.430       .  S
C226        C283   1.448       .  S
C227        C279   1.432       .  S
C228        C301   1.436       .  S
C229        C281   1.430       .  S
C230        C313   1.443       .  S
Zn231       O235   1.965       .  S
Zn231       O236   2.055       .  S
Zn231       O240   2.031       .  S
Zn231       O247   2.095       .  S
Zn232       O235   1.924       .  S
Zn232       O237   2.040       .  S
Zn232       O239   1.988       .  S
Zn232       O243   1.999       .  S
Zn233       O235   1.925       .  S
Zn233       O238   2.003       .  S
Zn233       O241   2.014       .  S
Zn233       O940   1.999   1_455  S
Zn234       O235   1.947       .  S
Zn234       O245   2.031       .  S
Zn234       O246   1.990       .  S
Zn234       O938   2.022   1_455  S
O236        C248   1.280       .  A
O237        C249   1.274       .  A
O238        C250   1.271       .  A
O239        C248   1.271       .  A
O240        C250   1.275       .  A
O241        C249   1.271       .  A
O242       Zn930   2.022       .  S
O242        C251   1.275       .  A
O243        C252   1.271       .  A
O244       Zn929   1.999       .  S
O244        C251   1.272       .  A
O245        C252   1.274       .  A
O246        C253   1.267       .  A
O247        C253   1.283       .  A
C248        C298   1.435       .  S
C249        C310   1.441       .  S
C250        C282   1.434       .  S
C251        C299   1.431       .  S
C252        C280   1.433       .  S
C253        C278   1.451       .  S
Zn254       O258   1.947       .  S
Zn254       O259   2.041       .  S
Zn254       O263   2.057       .  S
Zn254       O966   2.052       .  S
Zn255       O258   1.929       .  S
Zn255       O260   1.981       .  S
Zn255       O262   2.013       .  S
Zn255       O266   2.009       .  S
Zn256       O258   1.934       .  S
Zn256       O261   1.998       .  S
Zn256       O264   2.049       .  S
Zn256       O267   2.058       .  S
Zn257       O258   1.915       .  S
Zn257       O265   2.026       .  S
Zn257       O268   2.022       .  S
Zn257       O965   1.972       .  S
O259        C271   1.275       .  A
O260        C272   1.271       .  A
O261        C273   1.270       .  A
O262        C271   1.272       .  A
O263        C273   1.279       .  A
O264        C272   1.280       .  A
O265        C274   1.272       .  A
O266        C275   1.269   1_545  A
O267        C274   1.278       .  A
O268        C275   1.275   1_545  A
O269       Zn953   1.972       .  S
O269        C276   1.270   1_655  A
O270       Zn950   2.052   1_455  S
O270        C276   1.279       .  A
C271        C308   1.440       .  S
C272        C288   1.431       .  S
C273        C295   1.440       .  S
C274        C277   1.452       .  S
C275        C642   1.433       .  S
C276        C286   1.430       .  S
C277        C974   1.216   1_554  T
C278        C973   1.216   1_456  T
C279        C280   1.205       .  T
C281        C282   1.204       .  T
C283        C632   1.214   1_556  T
C284        C631   1.214   1_544  T
C285        C286   1.204       .  T
C287        C288   1.204       .  T
C289        C879   1.428   1_455  S
C289        C290   1.201       .  T
C291        C292   1.206       .  T
C293        C294   1.204       .  T
C294        C623   1.433       .  S
C295        C296   1.209       .  T
C297        C298   1.206       .  T
C299        C300   1.204       .  T
C300        C506   1.433   1_545  S
C301        C302   1.207       .  T
C303        C921   1.430       .  S
C303        C304   1.202       .  T
C305        C306   1.217   1_556  T
C307        C308   1.209       .  T
C309        C310   1.209       .  T
C311       C1008   1.215       .  T
C312       C1007   1.215   1_455  T
C313        C314   1.211       .  T
C315        C316   1.206       .  T
C317        C318   1.203       .  T
C319        C320   1.207       .  T
C321        C670   1.214       .  T
C322        C669   1.214   1_545  T
C323        C324   1.203       .  T
C325        C326   1.210       .  T
C327        C328   1.209       .  T
C329        C330   1.205       .  T
C331        C332   1.207       .  T
C333        C740   1.433   1_455  S
C333        C334   1.204       .  T
C335        C336   1.207       .  T
C337        C338   1.212       .  T
C339        C340   1.208       .  T
C341        C342   1.203       .  T
C342        C368   1.431   1_545  S
C343        C344   1.204       .  T
C345        C346   1.204       .  T
C346        C785   1.434       .  S
C347        C348   1.214       .  T
Zn349       O353   1.917       .  S
Zn349       O354   1.966       .  S
Zn349       O358   2.014       .  S
Zn349       O365   2.018       .  S
Zn350       O353   1.952       .  S
Zn350       O355   2.058       .  S
Zn350       O357   2.059       .  S
Zn350       O361   2.057       .  S
Zn351       O353   1.932       .  S
Zn351       O356   2.008       .  S
Zn351       O359   2.014       .  S
Zn351       O362   1.982       .  S
Zn352       O353   1.941       .  S
Zn352       O360   2.047       .  S
Zn352       O363   1.994       .  S
Zn352       O364   2.054       .  S
O354        C366   1.269       .  A
O355        C367   1.277       .  A
O356        C368   1.269       .  A
O357        C366   1.279       .  A
O358        C368   1.274       .  A
O359        C367   1.272       .  A
O360        C369   1.279       .  A
O361        C370   1.279       .  A
O362        C369   1.271       .  A
O363        C370   1.270       .  A
O364        C371   1.277       .  A
O365        C371   1.270       .  A
C366        C693   1.430       .  S
C367        C685   1.445       .  S
C369        C692   1.431       .  S
C370        C687   1.438       .  S
C371        C696   1.448       .  S
Zn372       O376   1.916       .  S
Zn372       O377   1.994       .  S
Zn372       O381   1.989       .  S
Zn372       O388   2.038       .  S
Zn373       O376   1.946       .  S
Zn373       O378   1.986       .  S
Zn373       O380   2.045       .  S
Zn373       O384   2.035       .  S
Zn374       O376   1.959       .  S
Zn374       O379   2.054       .  S
Zn374       O382   2.086       .  S
Zn374       O385   2.024       .  S
Zn375       O376   1.919       .  S
Zn375       O383   2.007       .  S
Zn375       O386   1.990       .  S
Zn375       O387   2.014       .  S
O377        C389   1.271       .  A
O378        C390   1.267       .  A
O379        C391   1.279       .  A
O380        C389   1.277       .  A
O381        C391   1.272       .  A
O382        C390   1.282       .  A
O383        C392   1.272       .  A
O384        C393   1.277       .  A
O385        C392   1.274       .  A
O386        C393   1.271       .  A
O387        C394   1.271       .  A
O388        C394   1.274       .  A
C389        C683   1.436       .  S
C390        C695   1.447       .  S
C391        C679   1.435       .  S
C392       C1377   1.433       .  S
C393        C677   1.432       .  S
C394        C675   1.441       .  S
Zn395       O399   1.932       .  S
Zn395       O400   2.059       .  S
Zn395       O404   2.003       .  S
Zn395       O411   2.059       .  S
Zn396       O399   1.926       .  S
Zn396       O401   2.008       .  S
Zn396       O403   1.986       .  S
Zn396       O407   2.008       .  S
Zn397       O399   1.949       .  S
Zn397       O402   2.058       .  S
Zn397       O405   2.037       .  S
Zn398       O399   1.914       .  S
Zn398       O409   2.015       .  S
Zn398       O410   2.017       .  S
O400        C412   1.281       .  A
O401        C413   1.272       .  A
O402        C414   1.279       .  A
O403        C412   1.272       .  A
O404        C414   1.271       .  A
O405        C413   1.275       .  A
O406        C415   1.268       .  A
O407        C416   1.269       .  A
O408        C415   1.279       .  A
O409        C416   1.273       .  A
O410        C417   1.271       .  A
O411        C417   1.278       .  A
C412        C684   1.435       .  S
C413        C667   1.437       .  S
C414        C674   1.441       .  S
C415        C682   1.429       .  S
C416        C672   1.432       .  S
C417        C670   1.449       .  S
Zn418       O422   1.917       .  S
Zn418       O423   2.010       .  S
Zn418       O427   1.999       .  S
Zn418       O434   1.993       .  S
Zn419       O422   1.922       .  S
Zn419       O424   1.998       .  S
Zn419       O426   2.049       .  S
Zn419       O430   2.005       .  S
Zn420       O422   1.962       .  S
Zn420       O425   2.036       .  S
Zn420       O428   2.047       .  S
Zn420       O431   2.091       .  S
Zn421       O422   1.943       .  S
Zn421       O429   1.984       .  S
Zn421       O432   2.024       .  S
O423        C435   1.271       .  A
O424        C436   1.273       .  A
O425        C437   1.275       .  A
O426        C435   1.275       .  A
O427        C437   1.270       .  A
O428        C436   1.279       .  A
O429        C438   1.267       .  A
O430        C439   1.272       .  A
O431        C438   1.282       .  A
O432        C439   1.274       .  A
O433        C440   1.274       .  A
C435        C662   1.443       .  S
C436        C664   1.435       .  S
C437       C1390   1.434   1_455  S
C438        C669   1.447       .  S
C439        C691   1.433       .  S
C440        C665   1.429       .  S
Zn441       O445   1.953       .  S
Zn441       O446   2.041       .  S
Zn441       O450   2.038       .  S
Zn441      O1153   2.045   1_455  S
Zn442       O445   1.941       .  S
Zn442       O447   2.062       .  S
Zn442       O449   2.000       .  S
Zn442       O453   2.063       .  S
Zn443       O445   1.935       .  S
Zn443       O448   2.019       .  S
Zn443       O451   1.990       .  S
Zn443       O454   2.010       .  S
Zn444       O445   1.919       .  S
Zn444       O452   2.009       .  S
Zn444       O455   2.014       .  S
Zn444      O1152   1.965       .  S
O446        C458   1.277       .  A
O447        C459   1.282       .  A
O448        C460   1.273       .  A
O449        C458   1.271       .  A
O450        C460   1.275       .  A
O451        C459   1.271       .  A
O452        C461   1.273       .  A
O453        C462   1.278       .  A
O454        C461   1.270       .  A
O455        C462   1.270       .  A
O456      Zn1140   1.965       .  S
O456        C463   1.268       .  A
O457      Zn1137   2.045       .  S
O457        C463   1.277       .  A
C458        C663   1.435       .  S
C459        C688   1.437       .  S
C460        C657   1.441       .  S
C461        C666   1.430       .  S
C462        C660   1.450       .  S
C463        C689   1.427       .  S
Zn464       O468   1.925       .  S
Zn464       O469   2.038       .  S
Zn464       O473   2.008       .  S
Zn464       O480   2.004       .  S
Zn465       O468   1.925       .  S
Zn465      O1166   1.994       .  S
Zn465       O472   2.011       .  S
Zn465       O476   2.004       .  S
Zn466       O468   1.950       .  S
Zn466       O471   2.033       .  S
Zn466      O1170   2.024       .  S
Zn466       O477   1.983       .  S
Zn467       O468   1.965       .  S
Zn467       O475   2.092       .  S
Zn467       O478   2.033       .  S
Zn467       O479   2.060       .  S
O469        C481   1.274       .  A
O470      Zn1161   1.994   1_455  S
O470        C482   1.271       .  A
O471        C483   1.274       .  A
O472        C481   1.271       .  A
O473        C483   1.272       .  A
O474      Zn1162   2.024   1_455  S
O474        C482   1.274       .  A
O475        C484   1.283       .  A
O477        C484   1.267       .  A
O479        C486   1.280       .  A
O480        C486   1.273       .  A
C481        C655   1.440       .  S
C482        C671   1.430       .  S
C483        C680   1.436       .  S
C484        C659   1.448       .  S
C485        C678   1.435   1_545  S
C486        C673   1.441       .  S
Zn487       O491   1.918       .  S
Zn487       O492   2.026       .  S
Zn487       O496   2.014       .  S
Zn487       O503   1.966       .  S
Zn488       O491   1.938       .  S
Zn488       O493   2.053       .  S
Zn488       O495   2.063       .  S
Zn488       O499   1.997       .  S
Zn489       O491   1.937       .  S
Zn489       O494   2.016       .  S
Zn489       O497   2.002       .  S
Zn489       O500   2.033       .  S
Zn490       O491   1.948       .  S
Zn490       O498   2.039       .  S
Zn490       O501   2.045       .  S
Zn490       O502   2.040       .  S
O492        C504   1.272       .  A
O493        C505   1.281       .  A
O494        C506   1.271       .  A
O495        C504   1.277       .  A
O496        C506   1.274       .  A
O497        C505   1.274       .  A
O498        C507   1.275       .  A
O499        C508   1.270       .  A
O500        C507   1.275       .  A
O501        C508   1.277       .  A
O502        C509   1.276       .  A
O503        C509   1.268       .  A
C504        C653   1.454       .  S
C505        C650   1.436       .  S
C507        C686   1.445       .  S
C508        C645   1.436       .  S
C509        C652   1.426       .  S
Zn510       O514   1.955       .  S
Zn510       O515   2.044       .  S
Zn510       O519   2.043       .  S
Zn510       O526   2.052       .  S
Zn511       O514   1.936       .  S
Zn511       O516   1.994       .  S
Zn511       O518   2.013       .  S
Zn511       O522   2.000       .  S
Zn512       O514   1.944       .  S
Zn512       O517   2.000       .  S
Zn512       O520   2.065       .  S
Zn512       O523   2.072       .  S
Zn513       O514   1.919       .  S
Zn513       O521   2.019       .  S
Zn513       O524   2.011       .  S
Zn513       O525   1.968       .  S
O515        C527   1.275       .  A
O516        C528   1.272       .  A
O517        C529   1.271       .  A
O518        C527   1.272       .  A
O519        C529   1.278       .  A
O520        C528   1.282       .  A
O521        C530   1.271       .  A
O522        C531   1.269       .  A
O523        C530   1.279       .  A
O524        C531   1.273       .  A
O525        C532   1.268       .  A
O526        C532   1.278       .  A
C527        C676   1.441       .  S
C528        C644   1.439       .  S
C529        C640   1.435       .  S
C530        C654   1.454       .  S
C531       C1333   1.428       .  S
C532        C641   1.429       .  S
Zn533       O537   1.915       .  S
Zn533       O538   2.031       .  S
Zn533       O542   1.994       .  S
Zn533       O549   1.995       .  S
Zn534       O537   1.917       .  S
Zn534       O539   2.004       .  S
Zn534       O541   2.013       .  S
Zn535       O537   1.955       .  S
Zn535       O540   2.051       .  S
Zn535       O543   2.029       .  S
Zn535       O546   2.088       .  S
Zn536       O537   1.942       .  S
Zn536       O544   1.983       .  S
Zn536       O548   2.026       .  S
O538        C550   1.273       .  A
O539        C551   1.271       .  A
O540        C552   1.279       .  A
O541        C550   1.271       .  A
O542        C552   1.272       .  A
O543        C551   1.274       .  A
O544        C553   1.267       .  A
O545        C554   1.271       .  A
O546        C553   1.282       .  A
O547        C554   1.274       .  A
O548        C555   1.274       .  A
O549        C555   1.271       .  A
C550        C668   1.438       .  S
C551        C633   1.433       .  S
C552        C639   1.435       .  S
C553        C632   1.447       .  S
C554        C638   1.426       .  S
C555        C635   1.432       .  S
Zn556       O560   1.932       .  S
Zn556       O561   2.003       .  S
Zn556       O565   1.982       .  S
Zn556       O572   2.016       .  S
Zn557       O560   1.918       .  S
Zn557       O562   2.018       .  S
Zn557       O564   2.015       .  S
Zn558       O560   1.940       .  S
Zn558       O563   2.051       .  S
Zn558       O566   2.054       .  S
Zn558       O569   1.994       .  S
Zn559       O560   1.950       .  S
Zn559       O567   2.050       .  S
Zn559       O571   2.050       .  S
O561        C573   1.269   1_455  A
O562        C574   1.270       .  A
O563        C575   1.280       .  A
O564        C573   1.274   1_455  A
O565        C575   1.271       .  A
O566        C574   1.277       .  A
O567        C576   1.278       .  A
O568        C577   1.269       .  A
O569        C576   1.270       .  A
O570        C577   1.279       .  A
O571        C578   1.276       .  A
O572        C578   1.272       .  A
C573       C1347   1.430       .  S
C574        C631   1.448       .  S
C575        C627   1.432       .  S
C576        C649   1.436       .  S
C577        C629   1.430       .  S
C578        C661   1.443       .  S
Zn579       O583   1.965       .  S
Zn579       O584   2.055       .  S
Zn579       O588   2.032       .  S
Zn579       O595   2.095       .  S
Zn580       O583   1.924       .  S
Zn580       O585   2.040       .  S
Zn580       O587   1.988       .  S
Zn580       O591   1.999       .  S
Zn581       O583   1.925       .  S
Zn581       O586   2.003       .  S
Zn581       O589   2.014       .  S
Zn581      O1288   1.999   1_455  S
Zn582       O583   1.947       .  S
Zn582      O1286   2.022   1_455  S
Zn582       O593   2.031       .  S
Zn582       O594   1.990       .  S
O584        C596   1.280       .  A
O585        C597   1.274       .  A
O586        C598   1.271       .  A
O587        C596   1.271       .  A
O588        C598   1.275       .  A
O589        C597   1.271       .  A
O590      Zn1278   2.022       .  S
O590        C599   1.275       .  A
O591        C600   1.271       .  A
O592      Zn1277   1.999       .  S
O592        C599   1.272       .  A
O593        C600   1.274       .  A
O594        C601   1.267       .  A
O595        C601   1.283       .  A
C596        C646   1.435       .  S
C597        C658   1.441       .  S
C598        C630   1.434       .  S
C599        C647   1.431       .  S
C600        C628   1.433       .  S
C601        C626   1.451       .  S
Zn602       O606   1.947       .  S
Zn602       O607   2.041       .  S
Zn602       O611   2.057       .  S
Zn602      O1314   2.052       .  S
Zn603       O606   1.929       .  S
Zn603       O608   1.981       .  S
Zn603       O610   2.013       .  S
Zn603       O614   2.009       .  S
Zn604       O606   1.934       .  S
Zn604       O609   1.998       .  S
Zn604       O612   2.049       .  S
Zn604       O615   2.058       .  S
Zn605       O606   1.915       .  S
Zn605       O613   2.026       .  S
Zn605       O616   2.022       .  S
Zn605      O1313   1.972       .  S
O607        C619   1.275       .  A
O608        C620   1.271       .  A
O609        C621   1.270       .  A
O610        C619   1.272       .  A
O611        C621   1.279       .  A
O612        C620   1.280       .  A
O613        C622   1.272       .  A
O614        C623   1.269       .  A
O615        C622   1.278       .  A
O616        C623   1.275       .  A
O617      Zn1301   1.972       .  S
O617        C624   1.270   1_655  A
O618      Zn1298   2.052   1_455  S
O618        C624   1.279       .  A
C619        C656   1.440       .  S
C620        C636   1.431       .  S
C621        C643   1.440       .  S
C622        C625   1.452       .  S
C624        C634   1.430       .  S
C625       C1322   1.216   1_554  T
C626       C1321   1.216   1_456  T
C627        C628   1.205       .  T
C629        C630   1.204       .  T
C633        C634   1.204       .  T
C635        C636   1.204       .  T
C637       C1227   1.428   1_455  S
C637        C638   1.201       .  T
C639        C640   1.206       .  T
C641        C642   1.204       .  T
C643        C644   1.209       .  T
C645        C646   1.206       .  T
C647        C648   1.204       .  T
C649        C650   1.207       .  T
C651       C1269   1.430       .  S
C651        C652   1.202       .  T
C653        C654   1.217   1_556  T
C655        C656   1.209       .  T
C657        C658   1.209       .  T
C659       C1356   1.215       .  T
C660       C1355   1.215   1_455  T
C661        C662   1.211       .  T
C663        C664   1.206       .  T
C665        C666   1.203       .  T
C667        C668   1.207       .  T
C671        C672   1.203       .  T
C673        C674   1.210       .  T
C675        C676   1.209       .  T
C677        C678   1.205       .  T
C679        C680   1.207       .  T
C681       C1088   1.433   1_455  S
C681        C682   1.204       .  T
C683        C684   1.207       .  T
C685        C686   1.212       .  T
C687        C688   1.208       .  T
C689        C690   1.203       .  T
C691        C692   1.204       .  T
C693        C694   1.204       .  T
C694       C1133   1.434       .  S
C695        C696   1.214       .  T
Zn697       O701   1.917       .  S
Zn697       O702   1.966       .  S
Zn697       O706   2.014       .  S
Zn697       O713   2.018       .  S
Zn698       O701   1.952       .  S
Zn698       O703   2.058       .  S
Zn698       O705   2.059       .  S
Zn698       O709   2.057       .  S
Zn699       O701   1.932       .  S
Zn699       O704   2.008       .  S
Zn699       O707   2.014       .  S
Zn699       O710   1.982       .  S
Zn700       O701   1.941       .  S
Zn700       O708   2.047       .  S
Zn700       O711   1.994       .  S
Zn700       O712   2.054       .  S
O702        C714   1.269       .  A
O703        C715   1.277       .  A
O704        C716   1.269       .  A
O705        C714   1.279       .  A
O706        C716   1.274       .  A
O707        C715   1.272       .  A
O708        C717   1.279       .  A
O709        C718   1.279       .  A
O710        C717   1.271       .  A
O711        C718   1.270       .  A
O712        C719   1.277       .  A
O713        C719   1.270       .  A
C714       C1041   1.430       .  S
C715       C1033   1.445       .  S
C716       C1386   1.431       .  S
C717       C1040   1.431       .  S
C718       C1035   1.438       .  S
C719       C1044   1.448       .  S
Zn720       O724   1.916       .  S
Zn720       O725   1.994       .  S
Zn720       O729   1.989       .  S
Zn720       O736   2.038       .  S
Zn721       O724   1.946       .  S
Zn721       O726   1.986       .  S
Zn721       O728   2.045       .  S
Zn721       O732   2.035       .  S
Zn722       O724   1.959       .  S
Zn722       O727   2.054       .  S
Zn722       O730   2.087       .  S
Zn722       O733   2.024       .  S
Zn723       O724   1.919       .  S
Zn723       O731   2.007       .  S
Zn723       O734   1.990       .  S
Zn723       O735   2.014       .  S
O725        C737   1.271       .  A
O726        C738   1.267       .  A
O727        C739   1.280       .  A
O728        C737   1.277       .  A
O729        C739   1.272       .  A
O730        C738   1.282       .  A
O731        C740   1.272       .  A
O732        C741   1.277       .  A
O733        C740   1.274       .  A
O734        C741   1.271       .  A
O735        C742   1.271       .  A
O736        C742   1.274       .  A
C737       C1031   1.436       .  S
C738       C1043   1.447       .  S
C739       C1027   1.435       .  S
C741       C1025   1.432       .  S
C742       C1023   1.441       .  S
Zn743       O747   1.932       .  S
Zn743       O748   2.059       .  S
Zn743       O752   2.003       .  S
Zn743       O759   2.059       .  S
Zn744       O747   1.926       .  S
Zn744       O749   2.008       .  S
Zn744       O751   1.986       .  S
Zn744       O755   2.008       .  S
Zn745       O747   1.949       .  S
Zn745       O750   2.058       .  S
Zn745       O753   2.037       .  S
Zn745      O1104   2.053   1_545  S
Zn746       O747   1.914       .  S
Zn746      O1102   1.968   1_545  S
Zn746       O757   2.015       .  S
Zn746       O758   2.017       .  S
O748        C760   1.281       .  A
O749        C761   1.272       .  A
O750        C762   1.279       .  A
O751        C760   1.272       .  A
O752        C762   1.271       .  A
O753        C761   1.275       .  A
O754      Zn1094   1.968       .  S
O754        C763   1.268       .  A
O755        C764   1.269       .  A
O756      Zn1093   2.053       .  S
O756        C763   1.279       .  A
O757        C764   1.273       .  A
O758        C765   1.271       .  A
O759        C765   1.278       .  A
C760       C1032   1.435       .  S
C761       C1015   1.437       .  S
C762       C1022   1.441       .  S
C763       C1030   1.429       .  S
C764       C1020   1.432       .  S
C765       C1018   1.449       .  S
Zn766       O770   1.917       .  S
Zn766       O771   2.010       .  S
Zn766       O775   1.999       .  S
Zn766       O782   1.993       .  S
Zn767       O770   1.922       .  S
Zn767       O772   1.998       .  S
Zn767       O774   2.049       .  S
Zn767       O778   2.005       .  S
Zn768       O770   1.962       .  S
Zn768       O773   2.036       .  S
Zn768       O776   2.047       .  S
Zn768       O779   2.091       .  S
Zn769       O770   1.943       .  S
Zn769       O777   1.984       .  S
Zn769       O780   2.024       .  S
Zn769      O1129   2.020       .  S
O771        C783   1.271       .  A
O772        C784   1.273       .  A
O773        C785   1.275       .  A
O774        C783   1.275       .  A
O775        C785   1.270       .  A
O776        C784   1.279       .  A
O777        C786   1.267       .  A
O778        C787   1.272       .  A
O779        C786   1.282       .  A
O780        C787   1.274       .  A
O781      Zn1117   2.020   1_545  S
O781        C788   1.275       .  A
O782       C1136   1.272       .  A
C783       C1010   1.443       .  S
C784       C1012   1.435       .  S
C786       C1017   1.447       .  S
C787       C1039   1.433       .  S
C788       O1130   1.272   1_545  A
C788       C1013   1.429       .  S
Zn789       O793   1.953       .  S
Zn789       O794   2.041       .  S
Zn789       O798   2.038       .  S
Zn790       O793   1.941       .  S
Zn790       O795   2.062       .  S
Zn790       O797   1.999       .  S
Zn790       O801   2.063       .  S
Zn791       O793   1.935       .  S
Zn791       O796   2.019       .  S
Zn791       O799   1.990       .  S
Zn791       O802   2.010       .  S
Zn792       O793   1.919       .  S
Zn792       O800   2.009       .  S
Zn792       O803   2.014       .  S
O794        C806   1.277       .  A
O795        C807   1.282       .  A
O796        C808   1.273       .  A
O797        C806   1.271       .  A
O798        C808   1.275       .  A
O799        C807   1.271       .  A
O800        C809   1.273       .  A
O801        C810   1.278       .  A
O802        C809   1.270       .  A
O803        C810   1.270       .  A
O804        C811   1.268   1_455  A
O805        C811   1.277       .  A
C806       C1011   1.435       .  S
C807       C1036   1.437       .  S
C808       C1005   1.441       .  S
C809       C1014   1.430       .  S
C810       C1008   1.450       .  S
C811       C1037   1.427       .  S
Zn812       O816   1.925       .  S
Zn812       O817   2.038       .  S
Zn812       O821   2.008       .  S
Zn812       O828   2.004       .  S
Zn813       O816   1.924       .  S
Zn813       O820   2.011       .  S
Zn813       O824   2.004       .  S
Zn814       O816   1.950       .  S
Zn814       O819   2.033       .  S
Zn814       O825   1.983       .  S
Zn815       O816   1.965       .  S
Zn815       O823   2.092       .  S
Zn815       O826   2.033       .  S
Zn815       O827   2.060       .  S
O817        C829   1.274       .  A
O818        C830   1.271       .  A
O819        C831   1.274       .  A
O820        C829   1.271       .  A
O821        C831   1.272       .  A
O822        C830   1.274       .  A
O823        C832   1.283       .  A
O824       C1181   1.271       .  A
O825        C832   1.267       .  A
O826       C1181   1.274       .  A
O827        C834   1.280       .  A
O828        C834   1.273       .  A
C829       C1003   1.440       .  S
C830       C1019   1.430       .  S
C831       C1028   1.436       .  S
C832       C1007   1.448       .  S
C833       O1172   1.271       .  A
C833       O1174   1.274       .  A
C833       C1026   1.435       .  S
C834       C1021   1.441       .  S
Zn835       O839   1.918       .  S
Zn835       O840   2.026       .  S
Zn835       O844   2.014       .  S
Zn835       O851   1.966       .  S
Zn836       O839   1.938       .  S
Zn836       O841   2.053       .  S
Zn836       O843   2.063       .  S
Zn836       O847   1.997       .  S
Zn837       O839   1.937       .  S
Zn837       O842   2.016       .  S
Zn837       O845   2.002       .  S
Zn837       O848   2.033       .  S
Zn838       O839   1.948       .  S
Zn838       O846   2.039       .  S
Zn838       O849   2.045       .  S
Zn838       O850   2.040       .  S
O840        C852   1.272       .  A
O841        C853   1.281       .  A
O842        C854   1.271       .  A
O843        C852   1.277       .  A
O844        C854   1.274       .  A
O845        C853   1.274       .  A
O846        C855   1.275       .  A
O847        C856   1.270       .  A
O848        C855   1.275       .  A
O849        C856   1.277       .  A
O850        C857   1.276       .  A
O851        C857   1.268       .  A
C852       C1001   1.454       .  S
C853        C998   1.436       .  S
C854       C1344   1.433       .  S
C855       C1034   1.445       .  S
C856        C993   1.436       .  S
C857       C1000   1.426       .  S
Zn858       O862   1.955       .  S
Zn858       O863   2.044       .  S
Zn858       O867   2.043       .  S
Zn858       O874   2.052       .  S
Zn859       O862   1.936       .  S
Zn859       O864   1.994       .  S
Zn859       O866   2.013       .  S
Zn859       O870   2.000       .  S
Zn860       O862   1.944       .  S
Zn860       O865   2.000       .  S
Zn860       O868   2.065       .  S
Zn860       O871   2.072       .  S
Zn861       O862   1.919       .  S
Zn861       O869   2.019       .  S
Zn861       O872   2.011       .  S
Zn861       O873   1.968       .  S
O863        C875   1.275       .  A
O864        C876   1.272       .  A
O865        C877   1.271       .  A
O866        C875   1.272       .  A
O867        C877   1.278       .  A
O868        C876   1.282       .  A
O869        C878   1.271       .  A
O870        C879   1.269       .  A
O871        C878   1.279       .  A
O872        C879   1.273       .  A
O873        C880   1.268       .  A
O874        C880   1.278       .  A
C875       C1024   1.441       .  S
C876        C992   1.439       .  S
C877        C988   1.435       .  S
C878       C1002   1.454       .  S
C880        C989   1.429       .  S
Zn881       O885   1.915       .  S
Zn881       O886   2.031       .  S
Zn881       O890   1.994       .  S
Zn881       O897   1.995       .  S
Zn882       O885   1.917       .  S
Zn882       O887   2.004       .  S
Zn882       O889   2.013       .  S
Zn882      O1241   1.989   1_545  S
Zn883       O885   1.955       .  S
Zn883       O888   2.051       .  S
Zn883       O891   2.029       .  S
Zn883       O894   2.088       .  S
Zn884       O885   1.942       .  S
Zn884       O892   1.983       .  S
Zn884      O1243   2.017   1_545  S
Zn884       O896   2.026       .  S
O886        C898   1.273       .  A
O887        C899   1.271       .  A
O888        C900   1.279       .  A
O889        C898   1.271       .  A
O890        C900   1.272       .  A
O891        C899   1.274       .  A
O892        C901   1.267       .  A
O893      Zn1230   1.989       .  S
O893        C902   1.271       .  A
O894        C901   1.282       .  A
O895      Zn1232   2.017       .  S
O895        C902   1.274       .  A
O896        C903   1.274       .  A
O897        C903   1.271       .  A
C898       C1016   1.438       .  S
C899        C981   1.433       .  S
C900        C987   1.435       .  S
C901        C980   1.447       .  S
C902        C986   1.426       .  S
C903        C983   1.432       .  S
Zn904       O908   1.932       .  S
Zn904       O909   2.003       .  S
Zn904       O913   1.982       .  S
Zn904       O920   2.016       .  S
Zn905       O908   1.918       .  S
Zn905       O910   2.018       .  S
Zn905       O912   2.015       .  S
Zn905      O1264   1.968       .  S
Zn906       O908   1.940       .  S
Zn906       O911   2.051       .  S
Zn906       O914   2.054       .  S
Zn906       O917   1.994       .  S
Zn907       O908   1.950       .  S
Zn907       O915   2.050       .  S
Zn907      O1266   2.054       .  S
Zn907       O919   2.050       .  S
O909        C921   1.269       .  A
O910        C922   1.270       .  A
O911        C923   1.280       .  A
O912        C921   1.274       .  A
O913        C923   1.271       .  A
O914        C922   1.277       .  A
O915        C924   1.278       .  A
O916      Zn1253   1.968       .  S
O916        C925   1.269   1_565  A
O917        C924   1.270       .  A
O918      Zn1255   2.054   1_545  S
O918        C925   1.279       .  A
O919        C926   1.276       .  A
O920        C926   1.272       .  A
C922        C979   1.448       .  S
C923        C975   1.432       .  S
C924        C997   1.436       .  S
C925        C977   1.430       .  S
C926       C1009   1.443       .  S
Zn927       O931   1.965       .  S
Zn927       O932   2.055       .  S
Zn927       O936   2.031       .  S
Zn927       O943   2.095       .  S
Zn928       O931   1.924       .  S
Zn928       O933   2.040       .  S
Zn928       O935   1.988       .  S
Zn928       O939   1.999       .  S
Zn929       O931   1.925       .  S
Zn929       O934   2.003       .  S
Zn929       O937   2.014       .  S
Zn930       O931   1.947       .  S
Zn930       O941   2.031       .  S
Zn930       O942   1.990       .  S
O932        C944   1.280       .  A
O933        C945   1.274       .  A
O934        C946   1.271       .  A
O935        C944   1.271       .  A
O936        C946   1.275       .  A
O937        C945   1.271       .  A
O938        C947   1.275       .  A
O939        C948   1.271       .  A
O940        C947   1.272       .  A
O941        C948   1.274       .  A
O942        C949   1.267       .  A
O943        C949   1.283       .  A
C944        C994   1.435       .  S
C945       C1006   1.441       .  S
C946        C978   1.434       .  S
C947        C995   1.431       .  S
C948        C976   1.433       .  S
C949        C974   1.451       .  S
Zn950       O954   1.947       .  S
Zn950       O955   2.041       .  S
Zn950       O959   2.057       .  S
Zn951       O954   1.929       .  S
Zn951       O956   1.981       .  S
Zn951       O958   2.013       .  S
Zn951       O962   2.009       .  S
Zn952       O954   1.934       .  S
Zn952       O957   1.998       .  S
Zn952       O960   2.049       .  S
Zn952       O963   2.058       .  S
Zn953       O954   1.915       .  S
Zn953       O961   2.026       .  S
Zn953       O964   2.022       .  S
O955        C967   1.275       .  A
O956        C968   1.271       .  A
O957        C969   1.270       .  A
O958        C967   1.272       .  A
O959        C969   1.279       .  A
O960        C968   1.280       .  A
O961        C970   1.272       .  A
O962        C971   1.269   1_545  A
O963        C970   1.278       .  A
O964        C971   1.275   1_545  A
O965        C972   1.270       .  A
O966        C972   1.279       .  A
C967       C1004   1.440       .  S
C968        C984   1.431       .  S
C969        C991   1.440       .  S
C970        C973   1.452       .  S
C971       C1338   1.433       .  S
C972        C982   1.430       .  S
C975        C976   1.205       .  T
C977        C978   1.204       .  T
C979       C1328   1.214   1_556  T
C980       C1327   1.214   1_544  T
C981        C982   1.204       .  T
C983        C984   1.204       .  T
C985        C986   1.201       .  T
C987        C988   1.206       .  T
C989        C990   1.204       .  T
C990       C1319   1.433       .  S
C991        C992   1.209       .  T
C993        C994   1.206       .  T
C995        C996   1.204       .  T
C996       C1202   1.433   1_545  S
C997        C998   1.207       .  T
C999       C1000   1.202       .  T
C1001      C1002   1.217   1_556  T
C1003      C1004   1.209       .  T
C1005      C1006   1.209       .  T
C1009      C1010   1.211       .  T
C1011      C1012   1.206       .  T
C1013      C1014   1.203       .  T
C1015      C1016   1.207       .  T
C1017      C1366   1.214       .  T
C1018      C1365   1.214   1_545  T
C1019      C1020   1.203       .  T
C1021      C1022   1.210       .  T
C1023      C1024   1.209       .  T
C1025      C1026   1.205       .  T
C1027      C1028   1.207       .  T
C1029      C1030   1.204       .  T
C1031      C1032   1.207       .  T
C1033      C1034   1.212       .  T
C1035      C1036   1.208       .  T
C1037      C1038   1.203       .  T
C1038      C1064   1.431   1_545  S
C1039      C1040   1.204       .  T
C1041      C1042   1.204       .  T
C1043      C1044   1.214       .  T
Zn1045     O1049   1.917       .  S
Zn1045     O1050   1.966       .  S
Zn1045     O1054   2.014       .  S
Zn1045     O1061   2.018       .  S
Zn1046     O1049   1.952       .  S
Zn1046     O1051   2.058       .  S
Zn1046     O1053   2.059       .  S
Zn1046     O1057   2.057       .  S
Zn1047     O1049   1.932       .  S
Zn1047     O1052   2.008       .  S
Zn1047     O1055   2.014       .  S
Zn1047     O1058   1.982       .  S
Zn1048     O1049   1.941       .  S
Zn1048     O1056   2.047       .  S
Zn1048     O1059   1.994       .  S
Zn1048     O1060   2.054       .  S
O1050      C1062   1.269       .  A
O1051      C1063   1.277       .  A
O1052      C1064   1.269       .  A
O1053      C1062   1.279       .  A
O1054      C1064   1.274       .  A
O1055      C1063   1.272       .  A
O1056      C1065   1.279       .  A
O1057      C1066   1.279       .  A
O1058      C1065   1.271       .  A
O1059      C1066   1.270       .  A
O1060      C1067   1.277       .  A
O1061      C1067   1.270       .  A
C1062      C1389   1.430       .  S
C1063      C1381   1.445       .  S
C1065      C1388   1.431       .  S
C1066      C1383   1.438       .  S
C1067      C1392   1.448       .  S
Zn1068     O1072   1.916       .  S
Zn1068     O1073   1.994       .  S
Zn1068     O1077   1.989       .  S
Zn1068     O1084   2.038       .  S
Zn1069     O1072   1.946       .  S
Zn1069     O1074   1.986       .  S
Zn1069     O1076   2.045       .  S
Zn1069     O1080   2.035       .  S
Zn1070     O1072   1.959       .  S
Zn1070     O1075   2.054       .  S
Zn1070     O1078   2.086       .  S
Zn1070     O1081   2.024       .  S
Zn1071     O1072   1.919       .  S
Zn1071     O1079   2.007       .  S
Zn1071     O1082   1.990       .  S
Zn1071     O1083   2.014       .  S
O1073      C1085   1.271       .  A
O1074      C1086   1.267       .  A
O1075      C1087   1.279       .  A
O1076      C1085   1.277       .  A
O1077      C1087   1.272       .  A
O1078      C1086   1.282       .  A
O1079      C1088   1.272       .  A
O1080      C1089   1.277       .  A
O1081      C1088   1.274       .  A
O1082      C1089   1.271       .  A
O1083      C1090   1.271       .  A
O1084      C1090   1.274       .  A
C1085      C1379   1.436       .  S
C1086      C1391   1.447       .  S
C1087      C1375   1.435       .  S
C1089      C1373   1.432       .  S
C1090      C1371   1.441       .  S
Zn1091     O1095   1.932       .  S
Zn1091     O1096   2.059       .  S
Zn1091     O1100   2.003       .  S
Zn1091     O1107   2.059       .  S
Zn1092     O1095   1.926       .  S
Zn1092     O1097   2.008       .  S
Zn1092     O1099   1.986       .  S
Zn1092     O1103   2.008       .  S
Zn1093     O1095   1.949       .  S
Zn1093     O1098   2.058       .  S
Zn1093     O1101   2.037       .  S
Zn1094     O1095   1.914       .  S
Zn1094     O1105   2.015       .  S
Zn1094     O1106   2.017       .  S
O1096      C1108   1.281       .  A
O1097      C1109   1.272       .  A
O1098      C1110   1.279       .  A
O1099      C1108   1.272       .  A
O1100      C1110   1.271       .  A
O1101      C1109   1.275       .  A
O1102      C1111   1.268       .  A
O1103      C1112   1.269       .  A
O1104      C1111   1.279       .  A
O1105      C1112   1.273       .  A
O1106      C1113   1.271       .  A
O1107      C1113   1.278       .  A
C1108      C1380   1.435       .  S
C1109      C1363   1.437       .  S
C1110      C1370   1.441       .  S
C1111      C1378   1.429       .  S
C1112      C1368   1.432       .  S
C1113      C1366   1.449       .  S
Zn1114     O1118   1.917       .  S
Zn1114     O1119   2.010       .  S
Zn1114     O1123   1.999       .  S
Zn1114     O1130   1.993       .  S
Zn1115     O1118   1.922       .  S
Zn1115     O1120   1.998       .  S
Zn1115     O1122   2.049       .  S
Zn1115     O1126   2.005       .  S
Zn1116     O1118   1.962       .  S
Zn1116     O1121   2.036       .  S
Zn1116     O1124   2.047       .  S
Zn1116     O1127   2.091       .  S
Zn1117     O1118   1.943       .  S
Zn1117     O1125   1.984       .  S
Zn1117     O1128   2.024       .  S
O1119      C1131   1.271       .  A
O1120      C1132   1.273       .  A
O1121      C1133   1.275       .  A
O1122      C1131   1.275       .  A
O1123      C1133   1.270       .  A
O1124      C1132   1.279       .  A
O1125      C1134   1.267       .  A
O1126      C1135   1.272       .  A
O1127      C1134   1.282       .  A
O1128      C1135   1.274       .  A
O1129      C1136   1.275       .  A
C1131      C1358   1.443       .  S
C1132      C1360   1.435       .  S
C1134      C1365   1.447       .  S
C1135      C1387   1.433       .  S
C1136      C1361   1.429       .  S
Zn1137     O1141   1.953       .  S
Zn1137     O1142   2.041       .  S
Zn1137     O1146   2.038       .  S
Zn1138     O1141   1.941       .  S
Zn1138     O1143   2.062       .  S
Zn1138     O1145   2.000       .  S
Zn1138     O1149   2.063       .  S
Zn1139     O1141   1.935       .  S
Zn1139     O1144   2.019       .  S
Zn1139     O1147   1.990       .  S
Zn1139     O1150   2.010       .  S
Zn1140     O1141   1.919       .  S
Zn1140     O1148   2.009       .  S
Zn1140     O1151   2.014       .  S
O1142      C1154   1.277       .  A
O1143      C1155   1.282       .  A
O1144      C1156   1.273       .  A
O1145      C1154   1.271       .  A
O1146      C1156   1.275       .  A
O1147      C1155   1.271       .  A
O1148      C1157   1.273       .  A
O1149      C1158   1.278       .  A
O1150      C1157   1.270       .  A
O1151      C1158   1.270       .  A
O1152      C1159   1.268   1_455  A
O1153      C1159   1.277       .  A
C1154      C1359   1.435       .  S
C1155      C1384   1.437       .  S
C1156      C1353   1.441       .  S
C1157      C1362   1.430       .  S
C1158      C1356   1.450       .  S
C1159      C1385   1.427       .  S
Zn1160     O1164   1.925       .  S
Zn1160     O1165   2.038       .  S
Zn1160     O1169   2.008       .  S
Zn1160     O1176   2.004       .  S
Zn1161     O1164   1.925       .  S
Zn1161     O1168   2.011       .  S
Zn1161     O1172   2.004       .  S
Zn1162     O1164   1.950       .  S
Zn1162     O1167   2.033       .  S
Zn1162     O1173   1.983       .  S
Zn1163     O1164   1.965       .  S
Zn1163     O1171   2.092       .  S
Zn1163     O1174   2.033       .  S
Zn1163     O1175   2.060       .  S
O1165      C1177   1.274       .  A
O1166      C1178   1.271       .  A
O1167      C1179   1.274       .  A
O1168      C1177   1.271       .  A
O1169      C1179   1.272       .  A
O1170      C1178   1.274       .  A
O1171      C1180   1.283       .  A
O1173      C1180   1.267       .  A
O1175      C1182   1.280       .  A
O1176      C1182   1.273       .  A
C1177      C1351   1.440       .  S
C1178      C1367   1.430       .  S
C1179      C1376   1.436       .  S
C1180      C1355   1.448       .  S
C1181      C1374   1.435   1_545  S
C1182      C1369   1.441       .  S
Zn1183     O1187   1.918       .  S
Zn1183     O1188   2.026       .  S
Zn1183     O1192   2.014       .  S
Zn1183     O1199   1.966       .  S
Zn1184     O1187   1.938       .  S
Zn1184     O1189   2.053       .  S
Zn1184     O1191   2.063       .  S
Zn1184     O1195   1.997       .  S
Zn1185     O1187   1.937       .  S
Zn1185     O1190   2.016       .  S
Zn1185     O1193   2.002       .  S
Zn1185     O1196   2.033       .  S
Zn1186     O1187   1.948       .  S
Zn1186     O1194   2.039       .  S
Zn1186     O1197   2.045       .  S
Zn1186     O1198   2.040       .  S
O1188      C1200   1.272       .  A
O1189      C1201   1.281       .  A
O1190      C1202   1.271       .  A
O1191      C1200   1.277       .  A
O1192      C1202   1.274       .  A
O1193      C1201   1.274       .  A
O1194      C1203   1.275       .  A
O1195      C1204   1.270       .  A
O1196      C1203   1.275       .  A
O1197      C1204   1.277       .  A
O1198      C1205   1.276       .  A
O1199      C1205   1.268       .  A
C1200      C1349   1.454       .  S
C1201      C1346   1.436       .  S
C1203      C1382   1.445       .  S
C1204      C1341   1.436       .  S
C1205      C1348   1.426       .  S
Zn1206     O1210   1.955       .  S
Zn1206     O1211   2.044       .  S
Zn1206     O1215   2.043       .  S
Zn1206     O1222   2.052       .  S
Zn1207     O1210   1.936       .  S
Zn1207     O1212   1.994       .  S
Zn1207     O1214   2.013       .  S
Zn1207     O1218   2.000       .  S
Zn1208     O1210   1.944       .  S
Zn1208     O1213   2.000       .  S
Zn1208     O1216   2.065       .  S
Zn1208     O1219   2.072       .  S
Zn1209     O1210   1.919       .  S
Zn1209     O1217   2.019       .  S
Zn1209     O1220   2.011       .  S
Zn1209     O1221   1.968       .  S
O1211      C1223   1.275       .  A
O1212      C1224   1.272       .  A
O1213      C1225   1.271       .  A
O1214      C1223   1.272       .  A
O1215      C1225   1.278       .  A
O1216      C1224   1.282       .  A
O1217      C1226   1.271       .  A
O1218      C1227   1.269       .  A
O1219      C1226   1.279       .  A
O1220      C1227   1.273       .  A
O1221      C1228   1.268       .  A
O1222      C1228   1.278       .  A
C1223      C1372   1.441       .  S
C1224      C1340   1.439       .  S
C1225      C1336   1.435       .  S
C1226      C1350   1.454       .  S
C1228      C1337   1.429       .  S
Zn1229     O1233   1.915       .  S
Zn1229     O1234   2.031       .  S
Zn1229     O1238   1.994       .  S
Zn1229     O1245   1.995       .  S
Zn1230     O1233   1.917       .  S
Zn1230     O1235   2.004       .  S
Zn1230     O1237   2.013       .  S
Zn1231     O1233   1.955       .  S
Zn1231     O1236   2.051       .  S
Zn1231     O1239   2.029       .  S
Zn1231     O1242   2.088       .  S
Zn1232     O1233   1.942       .  S
Zn1232     O1240   1.983       .  S
Zn1232     O1244   2.026       .  S
O1234      C1246   1.273       .  A
O1235      C1247   1.271       .  A
O1236      C1248   1.279       .  A
O1237      C1246   1.271       .  A
O1238      C1248   1.272       .  A
O1239      C1247   1.274       .  A
O1240      C1249   1.267       .  A
O1241      C1250   1.271       .  A
O1242      C1249   1.282       .  A
O1243      C1250   1.274       .  A
O1244      C1251   1.274       .  A
O1245      C1251   1.271       .  A
C1246      C1364   1.438       .  S
C1247      C1329   1.433       .  S
C1248      C1335   1.435       .  S
C1249      C1328   1.447       .  S
C1250      C1334   1.426       .  S
C1251      C1331   1.432       .  S
Zn1252     O1256   1.932       .  S
Zn1252     O1257   2.003       .  S
Zn1252     O1261   1.982       .  S
Zn1252     O1268   2.016       .  S
Zn1253     O1256   1.918       .  S
Zn1253     O1258   2.018       .  S
Zn1253     O1260   2.015       .  S
Zn1254     O1256   1.940       .  S
Zn1254     O1259   2.051       .  S
Zn1254     O1262   2.054       .  S
Zn1254     O1265   1.994       .  S
Zn1255     O1256   1.950       .  S
Zn1255     O1263   2.050       .  S
Zn1255     O1267   2.050       .  S
O1257      C1269   1.269       .  A
O1258      C1270   1.270       .  A
O1259      C1271   1.280       .  A
O1260      C1269   1.274       .  A
O1261      C1271   1.271       .  A
O1262      C1270   1.277       .  A
O1263      C1272   1.278       .  A
O1264      C1273   1.269       .  A
O1265      C1272   1.270       .  A
O1266      C1273   1.279       .  A
O1267      C1274   1.276       .  A
O1268      C1274   1.272       .  A
C1270      C1327   1.448       .  S
C1271      C1323   1.432       .  S
C1272      C1345   1.436       .  S
C1273      C1325   1.430       .  S
C1274      C1357   1.443       .  S
Zn1275     O1279   1.965       .  S
Zn1275     O1280   2.055       .  S
Zn1275     O1284   2.032       .  S
Zn1275     O1291   2.095       .  S
Zn1276     O1279   1.924       .  S
Zn1276     O1281   2.040       .  S
Zn1276     O1283   1.988       .  S
Zn1276     O1287   1.999       .  S
Zn1277     O1279   1.925       .  S
Zn1277     O1282   2.003       .  S
Zn1277     O1285   2.014       .  S
Zn1278     O1279   1.947       .  S
Zn1278     O1289   2.031       .  S
Zn1278     O1290   1.990       .  S
O1280      C1292   1.280       .  A
O1281      C1293   1.274       .  A
O1282      C1294   1.271       .  A
O1283      C1292   1.271       .  A
O1284      C1294   1.275       .  A
O1285      C1293   1.271       .  A
O1286      C1295   1.275       .  A
O1287      C1296   1.271       .  A
O1288      C1295   1.272       .  A
O1289      C1296   1.274       .  A
O1290      C1297   1.267       .  A
O1291      C1297   1.283       .  A
C1292      C1342   1.435       .  S
C1293      C1354   1.441       .  S
C1294      C1326   1.434       .  S
C1295      C1343   1.431       .  S
C1296      C1324   1.433       .  S
C1297      C1322   1.451       .  S
Zn1298     O1302   1.947       .  S
Zn1298     O1303   2.041       .  S
Zn1298     O1307   2.057       .  S
Zn1299     O1302   1.929       .  S
Zn1299     O1304   1.981       .  S
Zn1299     O1306   2.013       .  S
Zn1299     O1310   2.009       .  S
Zn1300     O1302   1.934       .  S
Zn1300     O1305   1.998       .  S
Zn1300     O1308   2.049       .  S
Zn1300     O1311   2.058       .  S
Zn1301     O1302   1.915       .  S
Zn1301     O1309   2.026       .  S
Zn1301     O1312   2.022       .  S
O1303      C1315   1.275       .  A
O1304      C1316   1.271       .  A
O1305      C1317   1.270       .  A
O1306      C1315   1.272       .  A
O1307      C1317   1.279       .  A
O1308      C1316   1.280       .  A
O1309      C1318   1.272       .  A
O1310      C1319   1.269       .  A
O1311      C1318   1.278       .  A
O1312      C1319   1.275       .  A
O1313      C1320   1.270       .  A
O1314      C1320   1.279       .  A
C1315      C1352   1.440       .  S
C1316      C1332   1.431       .  S
C1317      C1339   1.440       .  S
C1318      C1321   1.452       .  S
C1320      C1330   1.430       .  S
C1323      C1324   1.205       .  T
C1325      C1326   1.204       .  T
C1329      C1330   1.204       .  T
C1331      C1332   1.204       .  T
C1333      C1334   1.201       .  T
C1335      C1336   1.206       .  T
C1337      C1338   1.204       .  T
C1339      C1340   1.209       .  T
C1341      C1342   1.206       .  T
C1343      C1344   1.204       .  T
C1345      C1346   1.207       .  T
C1347      C1348   1.202       .  T
C1349      C1350   1.217   1_556  T
C1351      C1352   1.209       .  T
C1353      C1354   1.209       .  T
C1357      C1358   1.211       .  T
C1359      C1360   1.206       .  T
C1361      C1362   1.203       .  T
C1363      C1364   1.207       .  T
C1367      C1368   1.203       .  T
C1369      C1370   1.210       .  T
C1371      C1372   1.209       .  T
C1373      C1374   1.205       .  T
C1375      C1376   1.207       .  T
C1377      C1378   1.204       .  T
C1379      C1380   1.207       .  T
C1381      C1382   1.212       .  T
C1383      C1384   1.208       .  T
C1385      C1386   1.203       .  T
C1387      C1388   1.204       .  T
C1389      C1390   1.204       .  T
C1391      C1392   1.214       .  T
