geometry optimzed in LAMMPS
_audit_creation_date              2020-11-30 
_audit_creation_method            'lammps2cif' 
_symmetry_space_group_name_H-M    'P1' 
_symmetry_Int_Tables_number       1 
_symmetry_cell_setting            triclinic 
loop_ 
_symmetry_equiv_pos_as_xyz 
  x,y,z 
_cell_length_a                    24.330365399533747 
_cell_length_b                    24.2108909900488 
_cell_length_c                    47.7921532205508 
_cell_angle_alpha                 90.23629714357207 
_cell_angle_beta                  91.72034319954678 
_cell_angle_gamma                 87.66185714895505 
loop_ 
_atom_site_label 
_atom_site_type_symbol 
_atom_site_fract_x 
_atom_site_fract_y 
_atom_site_fract_z 
_atom_site_charge 
O1          O  0.97694663  0.36651015  0.68985753    -0.81820
O2          O  0.94019341  0.59490142  0.75338468    -0.66510
O3          O  0.98183674  0.47667964  0.70489331    -1.13110
C4          C  0.11444486  0.44930798  0.77978157     1.05070
O5          O  0.02545076  0.62193950  0.75059759    -0.79720
O6          O  0.11932831  0.55763595  0.73800554    -0.67300
Ni7        Ni  0.92482796  0.42726206  0.69420464     1.34870
C8          C  0.13105813  0.52220630  0.71916490     0.83800
O9          O  0.89848736  0.56227390  0.70511634    -0.80260
O10         O  0.86349157  0.48105827  0.69588195    -0.90530
C11         C  0.97508731  0.63191376  0.75619382     0.83370
O12         O  0.91421788  0.40656559  0.73212557    -0.68740
O13         O  0.10714445  0.50092057  0.78469868    -0.88020
C14         C  0.90014808  0.43924668  0.75182096     0.84200
C15         C  0.85829006  0.53333386  0.69807069     1.05770
H16         H  0.00035895  0.49378911  0.76958462     0.37580
O17         O  0.01583164  0.50893551  0.75303669    -1.10680
O18         O  0.09872150  0.48351982  0.71246311    -0.67340
Ni19       Ni  0.03889629  0.44846217  0.73117448     1.26350
O20         O  0.90830308  0.49117472  0.75096440    -0.67560
O21         O  0.09143236  0.42346151  0.75946326    -0.79860
C22         C  0.02721899  0.35376738  0.69566655     0.83590
O23         O  0.05866520  0.38508356  0.70946682    -0.67030
Ni24       Ni  0.06625483  0.56003694  0.76692588     1.27450
Ni25       Ni  0.95763715  0.53542122  0.72918106     1.26060
H26         H  0.99790898  0.49162793  0.68845251     0.38130
O27         O  0.00094006  0.86655084  0.75336578    -0.81820
O28         O  0.04214117  0.09263449  0.71602318    -0.66510
O29         O  0.99365742  0.97665362  0.75991488    -1.13110
C30         C  0.82533773  0.98640310  0.71146516     1.05070
O31         O  0.95960593  0.13103875  0.70449969    -0.79720
O32         O  0.90400015  0.09299719  0.74905079    -0.67300
Ni33       Ni  0.04321399  0.92007421  0.77273442     1.34870
C34         C  0.89009283  0.05854264  0.76732704     0.83800
O35         O  0.08017247  0.04730230  0.76420020    -0.80260
O36         O  0.08578099  0.97318494  0.79280360    -0.90530
C37         C  0.01189234  0.13187053  0.70593336     0.83370
O38         O  0.09686116  0.91906560  0.74408582    -0.68740
O39         O  0.83719851  0.03709608  0.71224181    -0.88020
C40         C  0.10104145  0.94741601  0.72207275     0.84200
C41         C  0.09957785  0.02169343  0.78607104     1.05770
H42         H  0.96519686  0.00483314  0.69640660     0.37580
O43         O  0.95445800  0.01902154  0.71445003    -1.10680
O44         O  0.88792719  0.00676678  0.76248269    -0.67340
Ni45       Ni  0.93005928  0.96025864  0.73710302     1.26350
O46         O  0.06570537  0.98601375  0.71546114    -0.67560
O47         O  0.86296959  0.94835539  0.71498473    -0.79860
C48         C  0.95156176  0.85837113  0.75993945     0.83590
O49         O  0.91497160  0.89745005  0.75912171    -0.67030
Ni50       Ni  0.90250954  0.07980920  0.70966071     1.27450
Ni51       Ni  0.01901349  0.03353960  0.73823611     1.26060
H52         H  0.98148177  0.99385683  0.77702489     0.38130
O53         O  0.54567688  0.37617138  0.69443621    -0.81820
O54         O  0.52412901  0.61029368  0.63630585    -0.66510
O55         O  0.51777208  0.48648520  0.68547774    -1.13110
C56         C  0.37810703  0.44792097  0.61603633     1.05070
O57         O  0.43847846  0.61889232  0.64823855    -0.79720
O58         O  0.35716369  0.54943362  0.65817557    -0.67300
Ni59       Ni  0.58352547  0.44172600  0.69270515     1.34870
C60         C  0.35662858  0.51643321  0.67857555     0.83800
O61         O  0.58900993  0.57904892  0.68004595    -0.80260
O62         O  0.63265906  0.50023180  0.69252652    -0.90530
C63         C  0.47841794  0.63754645  0.63547056     0.83370
O64         O  0.59481102  0.42718500  0.65408983    -0.68740
O65         O  0.37711613  0.49931515  0.61010796    -0.88020
C66         C  0.59483856  0.45976166  0.63329347     0.84200
C67         C  0.63194726  0.55168200  0.68865209     1.05770
H68         H  0.48140892  0.50095194  0.62311609     0.37580
O69         O  0.46738806  0.51530422  0.64044809    -1.10680
O70         O  0.39815640  0.48403126  0.68514808    -0.67340
Ni71       Ni  0.45911227  0.45384585  0.66262627     1.26350
O72         O  0.57582011  0.50968730  0.63451441    -0.67560
O73         O  0.40491966  0.42521355  0.63681945    -0.79860
C74         C  0.49792316  0.35865827  0.69135074     0.83590
O75         O  0.45590193  0.38850324  0.68427612    -0.67030
Ni76       Ni  0.40695618  0.56003060  0.62908521     1.27450
Ni77       Ni  0.52652711  0.54793289  0.66054181     1.26060
H78         H  0.50338052  0.49992636  0.70297151     0.38130
O79         O  0.43257688  0.12678850  0.68616787    -0.81820
O80         O  0.41734656  0.89142551  0.63052855    -0.66510
O81         O  0.44071310  0.01299573  0.67953738    -1.13110
C82         C  0.58009835  0.04053593  0.61262809     1.05070
O83         O  0.50569675  0.87243642  0.63893715    -0.79720
O84         O  0.59508990  0.93490903  0.65031004    -0.67300
Ni85       Ni  0.38317413  0.06869538  0.68257630     1.34870
C86         C  0.59789278  0.96023525  0.67350342     0.83800
O87         O  0.35767244  0.93220155  0.67400389    -0.80260
O88         O  0.32557912  0.01818649  0.68123375    -0.90530
C89         C  0.45923031  0.85857839  0.62902286     0.83370
O90         O  0.37558524  0.08118793  0.64289776    -0.68740
O91         O  0.57209126  0.99158166  0.60371971    -0.88020
C92         C  0.36568876  0.04510085  0.62412951     0.84200
C93         C  0.31809432  0.96693733  0.67948080     1.05770
H94         H  0.47017650  0.99851699  0.61805229     0.37580
O95         O  0.48455104  0.98005269  0.63474294    -1.10680
O96         O  0.55767575  0.99148198  0.68175105    -0.67340
Ni97       Ni  0.50389764  0.03612149  0.65929085     1.26350
O98         O  0.37617418  0.99386522  0.62813704    -0.67560
O99         O  0.56204149  0.06018488  0.63577529    -0.79860
C100        C  0.48373745  0.13100345  0.69057205     0.83590
O101        O  0.51917529  0.09350926  0.68470568    -0.67030
Ni102      Ni  0.53935419  0.93140239  0.62137642     1.27450
Ni103      Ni  0.42357910  0.95343636  0.65468034     1.26060
H104        H  0.45186465  0.99890057  0.69781449     0.38130
O105        O  0.84616812  0.24885950  0.49662892    -0.81820
O106        O  0.60498168  0.29429253  0.47181755    -0.66510
O107        O  0.73828370  0.24433690  0.50743512    -1.13110
C108        C  0.73187581  0.08048808  0.45713296     1.05070
O109        O  0.57746131  0.21221966  0.45651611    -0.79720
O110        O  0.62746203  0.15618947  0.50034441    -0.67300
Ni111      Ni  0.79425835  0.29237169  0.51749884     1.34870
C112        C  0.66649173  0.14063588  0.51723010     0.83800
O113        O  0.65990963  0.32641938  0.51883218    -0.80260
O114        O  0.74377660  0.33503420  0.53963997    -0.90530
C115        C  0.56966240  0.26382035  0.46023969     0.83370
O116        O  0.78444412  0.34672986  0.48860864    -0.68740
O117        O  0.68150107  0.08996763  0.46222108    -0.88020
C118        C  0.74658926  0.35709760  0.47029340     0.84200
C119        C  0.69168077  0.34456378  0.53854362     1.05770
H120        H  0.69708412  0.22375882  0.44521559     0.37580
O121        O  0.68842348  0.21006036  0.46346043    -1.10680
O122        O  0.71647755  0.13849200  0.50988637    -0.67340
Ni123      Ni  0.75347002  0.18303827  0.48308856     1.26350
O124        O  0.70582978  0.32591448  0.46635623    -0.67560
O125        O  0.76611437  0.11889313  0.45916021    -0.79860
C126        C  0.85687760  0.19867822  0.50362067     0.83590
O127        O  0.81977321  0.16362224  0.50269082    -0.67030
Ni128      Ni  0.63339823  0.15572111  0.46060005     1.27450
Ni129      Ni  0.67292314  0.27088680  0.48980689     1.26060
H130        H  0.72783594  0.23021198  0.52528590     0.38130
O131        O  0.34697549  0.19302277  0.45291787    -0.81820
O132        O  0.11928349  0.15391386  0.51075510    -0.66510
O133        O  0.23548443  0.19280553  0.46415810    -1.13110
C134        C  0.25208426  0.32597724  0.53751769     1.05070
O135        O  0.09019276  0.24098393  0.50537880    -0.79720
O136        O  0.14708300  0.33607213  0.49734949    -0.67300
Ni137      Ni  0.29246810  0.13792660  0.45739128     1.34870
C138        C  0.17589972  0.34299305  0.47608312     0.83800
O139        O  0.15929502  0.10846043  0.46450846    -0.80260
O140        O  0.24500165  0.07519728  0.45936534    -0.90530
C141        C  0.08153044  0.19140926  0.51216714     0.83370
O142        O  0.31124528  0.13237576  0.49644199    -0.68740
O143        O  0.20364700  0.31481932  0.54461040    -0.88020
C144        C  0.27881219  0.11917810  0.51548287     0.84200
C145        C  0.19318328  0.06889570  0.45930911     1.05770
H146        H  0.21876152  0.21305780  0.52773659     0.37580
O147        O  0.20067986  0.22812439  0.51103546    -1.10680
O148        O  0.21062347  0.30637629  0.46759813    -0.67340
Ni149      Ni  0.25587566  0.25277073  0.48872623     1.26350
O150        O  0.22646797  0.12075238  0.51155106    -0.67560
O151        O  0.27506292  0.30872621  0.51522691    -0.79860
C152        C  0.34991639  0.24529775  0.45562555     0.83590
O153        O  0.31273170  0.27556825  0.46632931    -0.67030
Ni154      Ni  0.14708637  0.27831139  0.52469127     1.27450
Ni155      Ni  0.17890864  0.16920976  0.48775121     1.26060
H156        H  0.21966153  0.20665182  0.44664342     0.38130
O157        O  0.34516553  0.70943458  0.44944417    -0.81820
O158        O  0.10990241  0.75545202  0.39083732    -0.66510
O159        O  0.23262584  0.71255623  0.43830645    -1.13110
C160        C  0.24758581  0.57351011  0.36702849     1.05070
O161        O  0.08372490  0.66963667  0.39585561    -0.79720
O162        O  0.14480876  0.57332361  0.40706806    -0.67300
Ni163      Ni  0.28781645  0.76548413  0.44508309     1.34870
C164        C  0.17609272  0.56490267  0.42852093     0.83800
O165        O  0.15324957  0.80154883  0.43656694    -0.80260
O166        O  0.23846145  0.82983938  0.44271729    -0.90530
C167        C  0.07289336  0.72005256  0.38954482     0.83370
O168        O  0.30191728  0.77057882  0.40615286    -0.68740
O169        O  0.19783963  0.58635967  0.35959445    -0.88020
C170        C  0.26747245  0.78686072  0.38703943     0.84200
C171        C  0.18674941  0.83932918  0.44176940     1.05770
H172        H  0.21054823  0.69004878  0.37515848     0.37580
O173        O  0.19431862  0.67658385  0.39183554    -1.10680
O174        O  0.21251621  0.59896620  0.43588008    -0.67340
Ni175      Ni  0.25335212  0.65049457  0.41449956     1.26350
O176        O  0.21562154  0.78351914  0.38992413    -0.67560
O177        O  0.27230087  0.59247390  0.38878873    -0.79860
C178        C  0.35186397  0.65737254  0.44683182     0.83590
O179        O  0.31498813  0.62678670  0.43708442    -0.67030
Ni180      Ni  0.14142570  0.62809171  0.37816433     1.27450
Ni181      Ni  0.17259967  0.73805806  0.41422419     1.26060
H182        H  0.21897861  0.69990686  0.45584457     0.38130
O183        O  0.83613824  0.67449825  0.38783023    -0.81820
O184        O  0.60451810  0.64206087  0.41838810    -0.66510
O185        O  0.72615791  0.68836813  0.37954336    -1.13110
C186        C  0.72750742  0.84824359  0.43306883     1.05070
O187        O  0.57484999  0.72381395  0.43537334    -0.79720
O188        O  0.61474508  0.78291367  0.39194948    -0.67300
Ni189      Ni  0.78034740  0.63770486  0.36686384     1.34870
C190        C  0.64932579  0.79675868  0.37399726     0.83800
O191        O  0.64866945  0.60978353  0.37002306    -0.80260
O192        O  0.72566848  0.60219960  0.34465751    -0.90530
C193        C  0.56946733  0.67241086  0.43085654     0.83370
O194        O  0.77628230  0.57952897  0.39398167    -0.68740
O195        O  0.67598379  0.84175694  0.43031596    -0.88020
C196        C  0.74444865  0.57182111  0.41408412     0.84200
C197        C  0.67520715  0.59263597  0.34860520     1.05770
H198        H  0.69886016  0.70688147  0.44304693     0.37580
O199        O  0.68548876  0.72230667  0.42538742    -1.10680
O200        O  0.70109642  0.79572695  0.37956717    -0.67340
Ni201      Ni  0.74548823  0.74684600  0.40436564     1.26350
O202        O  0.70673779  0.60727166  0.42069288    -0.67560
O203        O  0.76208728  0.80837537  0.42879851    -0.79860
C204        C  0.84581717  0.72468881  0.38236640     0.83590
O205        O  0.80829963  0.76257131  0.38370303    -0.67030
Ni206      Ni  0.62922319  0.77845600  0.43135853     1.27450
Ni207      Ni  0.66630025  0.66389251  0.39879447     1.26060
H208        H  0.71099333  0.70444908  0.36239902     0.38130
O209        O  0.63614071  0.25876497  0.88655603    -0.81820
O210        O  0.87428665  0.29598184  0.91676402    -0.66510
O211        O  0.74753973  0.24668309  0.87904769    -1.13110
C212        C  0.75357071  0.08978588  0.93340105     1.05070
O213        O  0.90367856  0.21657835  0.93699242    -0.79720
O214        O  0.86159955  0.15439158  0.89320413    -0.67300
Ni215      Ni  0.69085477  0.29561635  0.86572229     1.34870
C216        C  0.82483691  0.13816207  0.87575174     0.83800
O217        O  0.82445541  0.32341711  0.86754057    -0.80260
O218        O  0.74327413  0.33179443  0.84331890    -0.90530
C219        C  0.90893344  0.26737873  0.93144495     0.83370
O220        O  0.69607291  0.35413311  0.89297915    -0.68740
O221        O  0.80462679  0.09736894  0.93119905    -0.88020
C222        C  0.73203619  0.36535549  0.91178391     0.84200
C223        C  0.79472290  0.34066552  0.84640784     1.05770
H224        H  0.78196399  0.23405376  0.94282661     0.37580
O225        O  0.79353205  0.21696993  0.92554875    -1.10680
O226        O  0.77400909  0.14032374  0.88140690    -0.67340
Ni227      Ni  0.73190648  0.19026962  0.90485559     1.26350
O228        O  0.77263182  0.33199211  0.91786825    -0.67560
O229        O  0.71840013  0.12987668  0.93008890    -0.79860
C230        C  0.62888655  0.20669671  0.88547555     0.83590
O231        O  0.66867965  0.17178473  0.88396011    -0.67030
Ni232      Ni  0.85031907  0.16116161  0.93257330     1.27450
Ni233      Ni  0.80996527  0.27257374  0.89759292     1.26060
H234        H  0.76049741  0.22937275  0.86210878     0.38130
O235        O  0.13092786  0.20379048  0.93774588    -0.81820
O236        O  0.37093383  0.14499801  0.89460096    -0.66510
O237        O  0.24378589  0.19266085  0.93386916    -1.13110
C238        C  0.24434439  0.32770442  0.86136474     1.05070
O239        O  0.39714685  0.23039335  0.90293724    -0.79720
O240        O  0.33904503  0.33005617  0.90565480    -0.67300
Ni241      Ni  0.18470771  0.14353150  0.93604753     1.34870
C242        C  0.30942822  0.33893558  0.92671819     0.83800
O243        O  0.31812809  0.09983591  0.93645401    -0.80260
O244        O  0.23077184  0.07600066  0.93624400    -0.90530
C245        C  0.40853651  0.17926918  0.89879607     0.83370
O246        O  0.17546796  0.14084106  0.89626696    -0.68740
O247        O  0.29294885  0.30969464  0.85580902    -0.88020
C248        C  0.21140987  0.12293280  0.87932215     0.84200
C249        C  0.28205682  0.06396943  0.93935060     1.05770
H250        H  0.27362561  0.21279179  0.87261485     0.37580
O251        O  0.28894920  0.22582059  0.89016070    -1.10680
O252        O  0.27374553  0.30466912  0.93387631    -0.67340
Ni253      Ni  0.23037208  0.25644800  0.90979175     1.26350
O254        O  0.26295008  0.12037436  0.88592409    -0.67560
O255        O  0.21865866  0.31542577  0.88335391    -0.79860
C256        C  0.12883005  0.25638434  0.93641394     0.83590
O257        O  0.16883018  0.28445792  0.92938022    -0.67030
Ni258      Ni  0.34525438  0.27033590  0.87935616     1.27450
Ni259      Ni  0.30501210  0.16390493  0.91338312     1.26060
H260        H  0.25582991  0.20385428  0.95241481     0.38130
O261        O  0.13190083  0.70202582  0.95518776    -0.81820
O262        O  0.36249788  0.75219451  0.01293648    -0.66510
O263        O  0.24377416  0.70550109  0.96647495    -1.13110
C264        C  0.24126087  0.57346834  0.04100553     1.05070
O265        O  0.39789499  0.66664174  0.00932340    -0.79720
O266        O  0.34218884  0.56788653  0.00009502    -0.67300
Ni267      Ni  0.18494005  0.75825073  0.95762713     1.34870
C268        C  0.31089199  0.55831385  0.97895597     0.83800
O269        O  0.31619490  0.79448036  0.96652465    -0.80260
O270        O  0.22952959  0.82280090  0.95811013    -0.90530
C271        C  0.40371281  0.71847775  0.01326770     0.83370
O272        O  0.16881099  0.77010381  0.99592686    -0.68740
O273        O  0.29027634  0.58633211  0.04777663    -0.88020
C274        C  0.20212158  0.78714453  0.01472086     0.84200
C275        C  0.28044063  0.83227202  0.96014866     1.05770
H276        H  0.26881155  0.68855182  0.03009744     0.37580
O277        O  0.28559554  0.67340047  0.01353250    -1.10680
O278        O  0.27251443  0.59239116  0.97065884    -0.67340
Ni279      Ni  0.22823640  0.64561797  0.99164734     1.26350
O280        O  0.25434389  0.77992720  0.01321390    -0.67560
O281        O  0.21498539  0.58983674  0.01873541    -0.79860
C282        C  0.12857627  0.65049253  0.95951039     0.83590
O283        O  0.16755731  0.62043386  0.97002316    -0.67030
Ni284      Ni  0.34300016  0.62606503  0.02780039     1.27450
Ni285      Ni  0.30163857  0.73283217  0.98996776     1.26060
H286        H  0.25887040  0.69097305  0.94934889     0.38130
O287        O  0.63771864  0.69117605  0.99123845    -0.81820
O288        O  0.87151034  0.63910541  0.97347030    -0.66510
O289        O  0.74288209  0.69571461  0.00604157    -1.13110
C290        C  0.75118234  0.85544828  0.95271356     1.05070
O291        O  0.90327368  0.71753219  0.95695764    -0.79720
O292        O  0.85737410  0.78479617  0.99793548    -0.67300
Ni293      Ni  0.68659152  0.64897394  0.01508906     1.34870
C294        C  0.81987330  0.80209709  0.01430729     0.83800
O295        O  0.81808911  0.61200710  0.01929537    -0.80260
O296        O  0.73617207  0.60879031  0.03987507    -0.90530
C297        C  0.90774294  0.66582838  0.96164404     0.83370
O298        O  0.69513697  0.59060470  0.98798250    -0.68740
O299        O  0.80223579  0.84371430  0.95644969    -0.88020
C300        C  0.73166277  0.57959541  0.97018081     0.84200
C301        C  0.78744142  0.59586063  0.03891606     1.05770
H302        H  0.78035294  0.71100911  0.94448700     0.37580
O303        O  0.79117058  0.72595838  0.96250862    -1.10680
O304        O  0.76849274  0.80109128  0.00772163    -0.67340
Ni305      Ni  0.72770823  0.75619434  0.98097532     1.26350
O306        O  0.77105764  0.61154961  0.96609706    -0.67560
O307        O  0.71517851  0.81969500  0.95667324    -0.79860
C308        C  0.62583748  0.73983508  0.99981971     0.83590
O309        O  0.66132115  0.77688097  0.99920005    -0.67030
Ni310      Ni  0.84859834  0.77684536  0.95823498     1.27450
Ni311      Ni  0.80606478  0.66644676  0.98981924     1.26060
H312        H  0.75459872  0.71051860  0.02392997     0.38130
O313        O  0.46954930  0.55800424  0.19610903    -0.81820
O314        O  0.54816037  0.32447236  0.25003227    -0.66510
O315        O  0.48487342  0.44607133  0.20741564    -1.13110
C316        C  0.36891507  0.44931065  0.28656150     1.05070
O317        O  0.46348931  0.29544576  0.24568832    -0.79720
O318        O  0.36159214  0.34818529  0.24170833    -0.67300
Ni319      Ni  0.52961549  0.50532172  0.19824695     1.34870
C320        C  0.34769352  0.38108425  0.22196672     0.83800
O321        O  0.58148837  0.37294449  0.20367097    -0.80260
O322        O  0.59568976  0.46132742  0.19761772    -0.90530
C323        C  0.51398168  0.28649729  0.25242041     0.83370
O324        O  0.54274943  0.52087618  0.23690897    -0.68740
O325        O  0.38305826  0.39851187  0.29063139    -0.88020
C326        C  0.56632800  0.48790922  0.25466458     0.84200
C327        C  0.61278371  0.41126254  0.19707358     1.05770
H328        H  0.48147027  0.41911651  0.27125257     0.37580
O329        O  0.46484408  0.40386807  0.25448314    -1.10680
O330        O  0.37704312  0.42092967  0.21520448    -0.67340
Ni331      Ni  0.43044561  0.46320009  0.23538657     1.26350
O332        O  0.56739408  0.43518411  0.25173291    -0.67560
O333        O  0.38060811  0.47735357  0.26506450    -0.79860
C334        C  0.41961556  0.56225923  0.20281178     0.83590
O335        O  0.39658162  0.52545603  0.21643378    -0.67030
Ni336      Ni  0.42280976  0.34671538  0.26786692     1.27450
Ni337      Ni  0.52143672  0.38711294  0.22879343     1.26060
H338        H  0.46793883  0.43135175  0.19058343     0.38130
O339        O  0.44553680  0.05701547  0.25333992    -0.81820
O340        O  0.39939123  0.81837597  0.22526890    -0.66510
O341        O  0.45317810  0.94474868  0.26102713    -1.13110
C342        C  0.60616098  0.93438190  0.20629982     1.05070
O343        O  0.47566477  0.78605717  0.20495282    -0.79720
O344        O  0.54166693  0.82621341  0.24753563    -0.67300
Ni345      Ni  0.40544065  0.00291425  0.27309967     1.34870
C346        C  0.55891286  0.86192805  0.26501847     0.83800
O347        O  0.37703459  0.86870482  0.27325497    -0.80260
O348        O  0.36664722  0.95131162  0.29513392    -0.90530
C349        C  0.42574420  0.78174239  0.21165446     0.83370
O350        O  0.34783130  0.00093218  0.24437966    -0.68740
O351        O  0.59750033  0.88319266  0.20883676    -0.88020
C352        C  0.33490238  0.96373661  0.22672767     0.84200
C353        C  0.36003614  0.89920606  0.29337084     1.05770
H354        H  0.46144433  0.91027325  0.19767403     0.37580
O355        O  0.47925941  0.89778251  0.21498560    -1.10680
O356        O  0.55844968  0.91356216  0.25934820    -0.67340
Ni357      Ni  0.50891756  0.95861051  0.23518952     1.26350
O358        O  0.36561663  0.92064091  0.22261883    -0.67560
O359        O  0.56757439  0.97057256  0.20972283    -0.79860
C360        C  0.49744368  0.06240127  0.25701351     0.83590
O361        O  0.53110417  0.02129407  0.25551550    -0.67030
Ni362      Ni  0.53250340  0.83884083  0.20820968     1.27450
Ni363      Ni  0.42547110  0.88249417  0.24320279     1.26060
H364        H  0.47071389  0.93156214  0.27826383     0.38130
O365        O  0.98453184  0.56980994  0.19221857    -0.81820
O366        O  0.92855629  0.33291681  0.14345602    -0.66510
O367        O  0.97643826  0.45447999  0.18718975    -1.13110
C368        C  0.10694757  0.45521156  0.11436981     1.05070
O369        O  0.01478548  0.29927903  0.14746720    -0.79720
O370        O  0.11348628  0.35320913  0.15568468    -0.67300
Ni371      Ni  0.92753756  0.51734491  0.19159263     1.34870
C372        C  0.12312764  0.38480466  0.17639630     0.83800
O373        O  0.88413385  0.38457425  0.18749385    -0.80260
O374        O  0.86429094  0.47380883  0.19289853    -0.90530
C375        C  0.96371385  0.29295580  0.14197484     0.83370
O376        O  0.91622340  0.52715598  0.15182652    -0.68740
O377        O  0.09338505  0.40638377  0.10749226    -0.88020
C378        C  0.89887524  0.49145587  0.13432516     0.84200
C379        C  0.84956337  0.42433411  0.19210257     1.05770
H380        H  0.99291378  0.42746421  0.12494805     0.37580
O381        O  0.00766984  0.41004172  0.14178069    -1.10680
O382        O  0.08761845  0.42072609  0.18480266    -0.67340
Ni383      Ni  0.03640544  0.46700812  0.16294093     1.26350
O384        O  0.90167408  0.43975897  0.13924110    -0.67560
O385        O  0.09170904  0.48021927  0.13653150    -0.79860
C386        C  0.03662131  0.56753341  0.19136489     0.83590
O387        O  0.06388181  0.52472567  0.18473539    -0.67030
Ni388      Ni  0.05434974  0.35313883  0.12800931     1.27450
Ni389      Ni  0.94780151  0.39520958  0.16500376     1.26060
H390        H  0.98974900  0.44093886  0.20524101     0.38130
O391        O  0.00284591  0.05727013  0.14742064    -0.81820
O392        O  0.05534965  0.82503740  0.17286525    -0.66510
O393        O  0.99906621  0.95018209  0.13508264    -1.13110
C394        C  0.83834409  0.93960093  0.18626647     1.05070
O395        O  0.97543261  0.78617942  0.18003657    -0.79720
O396        O  0.90517151  0.83595603  0.14151972    -0.67300
Ni397      Ni  0.04590151  0.00669372  0.12579231     1.34870
C398        C  0.89027329  0.87437601  0.12450869     0.83800
O399        O  0.08621898  0.87615725  0.12726491    -0.80260
O400        O  0.08723837  0.95590284  0.10302184    -0.90530
C401        C  0.02763533  0.78459493  0.17930294     0.83370
O402        O  0.10336968  0.99903680  0.15443945    -0.68740
O403        O  0.85115706  0.88833282  0.18438441    -0.88020
C404        C  0.11268301  0.96419616  0.17402172     0.84200
C405        C  0.10130039  0.90485561  0.10659165     1.05770
H406        H  0.97886678  0.91198787  0.19666546     0.37580
O407        O  0.96617896  0.90117524  0.17816710    -1.10680
O408        O  0.89358160  0.92561526  0.13048134    -0.67340
Ni409      Ni  0.93711274  0.96492842  0.15824032     1.26350
O410        O  0.07853719  0.92702114  0.17886318    -0.67560
O411        O  0.87228404  0.97662332  0.18066271    -0.79860
C412        C  0.95334881  0.06827021  0.13910374     0.83590
O413        O  0.91751690  0.03157777  0.13903884    -0.67030
Ni414      Ni  0.91687354  0.84167092  0.18108773     1.27450
Ni415      Ni  0.02842196  0.88834292  0.15386071     1.26060
H416        H  0.98559066  0.93702273  0.11716436     0.38130
C417        C  0.94628300  0.23802172  0.13454677    -0.07050
C418        C  0.97798123  0.20837615  0.11521701    -0.18180
C419        C  0.97423223  0.15159873  0.11279541     0.10140
C420        C  0.93888697  0.12438687  0.13045126    -0.06980
C421        C  0.90078192  0.15475621  0.14628161    -0.18210
C422        C  0.90454995  0.21186433  0.14878280     0.10170
S423        S  0.01975219  0.11521844  0.08922550    -0.33180
S424        S  0.86091068  0.24717543  0.17343088    -0.33190
H425        H  0.90452145  0.27259510  0.18773211     0.28180
H426        H  0.98880124  0.06746452  0.08700451     0.28180
H427        H  0.00853219  0.22897035  0.10342493     0.18770
H428        H  0.87320405  0.13350907  0.15958461     0.18780
C429        C  0.06477440  0.61908185  0.19341007    -0.07050
C430        C  0.07863459  0.64094470  0.16766984    -0.18180
C431        C  0.07249973  0.69740454  0.16292097     0.10140
C432        C  0.05620795  0.73213695  0.18515270    -0.06980
C433        C  0.05341009  0.71096141  0.21227625    -0.18210
C434        C  0.05757849  0.65408075  0.21659810     0.10170
S435        S  0.07382491  0.72052529  0.12713550    -0.33180
S436        S  0.04709053  0.62774169  0.25111537    -0.33190
H437        H  0.06939887  0.57433848  0.24568967     0.28180
H438        H  0.09693674  0.77097027  0.13387912     0.28180
H439        H  0.08524017  0.61357908  0.15005050     0.18770
H440        H  0.04201580  0.73807205  0.22944199     0.18780
C441        C  0.27885326  0.96675204  0.21239980    -0.07050
C442        C  0.24877913  0.91841809  0.21222458    -0.18180
C443        C  0.19399125  0.91739694  0.20210537     0.10140
C444        C  0.16714972  0.96561110  0.19037748    -0.06980
C445        C  0.19738873  0.01438538  0.19066899    -0.18210
C446        C  0.25207669  0.01562756  0.20169585     0.10170
S447        S  0.16218186  0.85193732  0.20431544    -0.33180
S448        S  0.28607731  0.08026423  0.20033012    -0.33190
H449        H  0.33913051  0.05652790  0.19673088     0.28180
H450        H  0.11860407  0.87360583  0.22027631     0.28180
H451        H  0.26776007  0.88078774  0.22099283     0.18770
H452        H  0.17868978  0.05189719  0.18169470     0.18780
C453        C  0.78052085  0.95384160  0.19456840    -0.07050
C454        C  0.74203371  0.97638157  0.17468718    -0.18180
C455        C  0.68462722  0.97513486  0.17866839     0.10140
C456        C  0.66468990  0.95011009  0.20292944    -0.06980
C457        C  0.70340534  0.93112044  0.22351370    -0.18210
C458        C  0.76049760  0.93283994  0.21967653     0.10170
S459        S  0.63935884  0.00030463  0.15065540    -0.33180
S460        S  0.80790429  0.90537004  0.24645007    -0.33190
H461        H  0.76832062  0.89384757  0.26625698     0.28180
H462        H  0.59745891  0.02054066  0.16793593     0.28180
H463        H  0.75658900  0.99166130  0.15507692     0.18770
H464        H  0.68864910  0.91223237  0.24221269     0.18780
C465        C  0.67259131  0.40307625  0.19047081    -0.07050
C466        C  0.69632172  0.45042413  0.18008393    -0.18180
C467        C  0.75138284  0.46022955  0.18454980     0.10140
C468        C  0.78882789  0.41646114  0.19306774    -0.06980
C469        C  0.76658932  0.36534092  0.19984577    -0.18210
C470        C  0.70876886  0.35894880  0.19975473     0.10170
S471        S  0.76745794  0.53234525  0.18221505    -0.33180
S472        S  0.68411442  0.29485490  0.21226755    -0.33190
H473        H  0.64280494  0.29139489  0.19117840     0.28180
H474        H  0.78595117  0.53488662  0.21037912     0.28180
H475        H  0.67049509  0.48450403  0.17185074     0.18770
H476        H  0.79398951  0.33120380  0.20643195     0.18780
C477        C  0.29206209  0.37787924  0.20828314    -0.07050
C478        C  0.26481292  0.42839013  0.20162930    -0.18180
C479        C  0.20994947  0.43160263  0.19211888     0.10140
C480        C  0.17973178  0.38289334  0.18942764    -0.06980
C481        C  0.20721793  0.33179885  0.19543008    -0.18210
C482        C  0.26282616  0.32875745  0.20480009     0.10170
S483        S  0.18146832  0.49855045  0.18166695    -0.33180
S484        S  0.29456457  0.26113419  0.21074869    -0.33190
H485        H  0.34702747  0.27525786  0.20222873     0.28180
H486        H  0.22733474  0.53009259  0.18839853     0.28180
H487        H  0.28659125  0.46622013  0.20440526     0.18770
H488        H  0.18548991  0.29395285  0.19239316     0.18780
C489        C  0.51801183  0.11758849  0.26220578    -0.07050
C490        C  0.49073337  0.15067908  0.28189207    -0.18180
C491        C  0.49748313  0.20736977  0.28268266     0.10140
C492        C  0.53016307  0.23149509  0.26255295    -0.06980
C493        C  0.56347104  0.19788159  0.24561878    -0.18210
C494        C  0.55837414  0.14060911  0.24558109     0.10170
S495        S  0.45792942  0.24790484  0.30734612    -0.33180
S496        S  0.59807147  0.10065546  0.22096011    -0.33190
H497        H  0.61860560  0.06251894  0.24120271     0.28180
H498        H  0.49026613  0.29470767  0.30634612     0.28180
H499        H  0.46142196  0.13278566  0.29551948     0.18770
H500        H  0.58879222  0.21645567  0.23023812     0.18780
C501        C  0.39088714  0.61591096  0.19719838    -0.07050
C502        C  0.36597591  0.64245373  0.21996434    -0.18180
C503        C  0.37041227  0.69943794  0.22386398     0.10140
C504        C  0.39925261  0.72985160  0.20417586    -0.06980
C505        C  0.41266588  0.70486030  0.17862198    -0.18210
C506        C  0.40744193  0.64823318  0.17469229     0.10170
S507        S  0.34602239  0.72849625  0.25619014    -0.33180
S508        S  0.43006201  0.61803336  0.14224283    -0.33190
H509        H  0.40469358  0.56746735  0.14596552     0.28180
H510        H  0.39749470  0.74788751  0.26462984     0.28180
H511        H  0.35117078  0.61809802  0.23695078     0.18770
H512        H  0.43183725  0.72851464  0.16264604     0.18780
C513        C  0.83610614  0.82417857  0.04213185    -0.07050
C514        C  0.80945259  0.80549723  0.06576384    -0.18180
C515        C  0.82512319  0.82253028  0.09278467     0.10140
C516        C  0.86868819  0.85892819  0.09648031    -0.06980
C517        C  0.89405441  0.87916676  0.07283923    -0.18210
C518        C  0.87815119  0.86244212  0.04579319     0.10170
S519        S  0.78741093  0.79714105  0.12165137    -0.33180
S520        S  0.91220584  0.89238989  0.01686049    -0.33190
H521        H  0.86516923  0.89557272  0.99900677     0.28180
H522        H  0.79077697  0.84549407  0.13792565     0.28180
H523        H  0.77659738  0.77683232  0.06321451     0.18770
H524        H  0.92706557  0.90763789  0.07546130     0.18780
C525        C  0.87003795  0.51100586  0.10838095    -0.07050
C526        C  0.81395699  0.52487434  0.10953140    -0.18180
C527        C  0.78467899  0.54831641  0.08667681     0.10140
C528        C  0.81298487  0.56151743  0.06207931    -0.06980
C529        C  0.86852862  0.54350332  0.06033654    -0.18210
C530        C  0.89632895  0.51653961  0.08275776     0.10170
S531        S  0.71163340  0.55923739  0.09089139    -0.33180
S532        S  0.96332355  0.48632846  0.07678689    -0.33190
H533        H  0.94617579  0.43280607  0.08246680     0.28180
H534        H  0.69800626  0.53043202  0.06614498     0.28180
H535        H  0.79236761  0.51625235  0.12825596     0.18770
H536        H  0.89047019  0.54968759  0.04127708     0.18780
C537        C  0.17910665  0.81914813  0.03839540    -0.07050
C538        C  0.19760383  0.80738292  0.06596583    -0.18180
C539        C  0.17488654  0.83588006  0.08887186     0.10140
C540        C  0.13252679  0.87689877  0.08411824    -0.06980
C541        C  0.11556394  0.88954364  0.05650936    -0.18210
C542        C  0.13834194  0.86170623  0.03379870     0.10170
S543        S  0.20272561  0.81913585  0.12333354    -0.33180
S544        S  0.11403124  0.88359716  0.99944105    -0.33190
H545        H  0.16666923  0.88299765  0.98824778     0.28180
H546        H  0.19379146  0.87232533  0.13468788     0.28180
H547        H  0.22950463  0.77548446  0.06968899     0.18770
H548        H  0.08323949  0.92092562  0.05250425     0.18780
C549        C  0.21049132  0.54226215  0.06095543    -0.07050
C550        C  0.16075890  0.56692378  0.06941921    -0.18180
C551        C  0.12626552  0.53927014  0.08679490     0.10140
C552        C  0.14176738  0.48527835  0.09578153    -0.06980
C553        C  0.19198389  0.46064950  0.08769471    -0.18210
C554        C  0.22724553  0.48922817  0.07088507     0.10170
S555        S  0.06175545  0.57279307  0.09626675    -0.33180
S556        S  0.29176623  0.45548660  0.06228865    -0.33190
H557        H  0.32349066  0.49972762  0.07133601     0.28180
H558        H  0.06558086  0.62062670  0.07995102     0.28180
H559        H  0.14896517  0.60821853  0.06223688     0.18770
H560        H  0.20430468  0.41957798  0.09506820     0.18780
C561        C  0.45945652  0.73863308  0.01680228    -0.07050
C562        C  0.49683337  0.70676015  0.03339682    -0.18180
C563        C  0.55306080  0.71297511  0.03144103     0.10140
C564        C  0.57212483  0.75023872  0.01169912    -0.06980
C565        C  0.53519761  0.78734459  0.99801125    -0.18210
C566        C  0.47868062  0.78252307  0.00074335     0.10170
S567        S  0.59867815  0.66890524  0.05277912    -0.33180
S568        S  0.43410294  0.82891864  0.98052447    -0.33190
H569        H  0.40492825  0.84618160  0.00413072     0.28180
H570        H  0.64342213  0.70391721  0.05236498     0.28180
H571        H  0.48228749  0.67457656  0.04668892     0.18770
H572        H  0.55008705  0.81661718  0.98319265     0.18780
C573        C  0.07433071  0.62761634  0.95431681    -0.07050
C574        C  0.04449569  0.64595365  0.93033114    -0.18180
C575        C  0.98723394  0.65077833  0.93028747     0.10140
C576        C  0.95978904  0.63721212  0.95472328    -0.06980
C577        C  0.98864688  0.60840457  0.97623894    -0.18210
C578        C  0.04602583  0.60402420  0.97645245     0.10170
S579        S  0.95172566  0.67997253  0.89980168    -0.33180
S580        S  0.08028304  0.57803637  0.00785620    -0.33190
H581        H  0.10356853  0.62894201  0.01441074     0.28180
H582        H  0.90026627  0.65891515  0.90568349     0.28180
H583        H  0.06594323  0.66248339  0.91286336     0.18770
H584        H  0.96742045  0.59661302  0.99479406     0.18780
C585        C  0.31475752  0.39368761  0.94148967    -0.07050
C586        C  0.32500181  0.44062247  0.92515277    -0.18180
C587        C  0.32489637  0.49447395  0.93650202     0.10140
C588        C  0.31613244  0.50261312  0.96528635    -0.06980
C589        C  0.30771634  0.45577322  0.98179981    -0.18210
C590        C  0.30674286  0.40199007  0.97040159     0.10170
S591        S  0.33562277  0.55092399  0.91306776    -0.33180
S592        S  0.29604190  0.34588267  0.99399804    -0.33190
H593        H  0.33169315  0.30783104  0.98052049     0.28180
H594        H  0.35882185  0.58609901  0.93327153     0.28180
H595        H  0.33149791  0.43567299  0.90293828     0.18770
H596        H  0.30045991  0.46137017  0.00382788     0.18780
C597        C  0.29827986  0.00557769  0.94589041    -0.07050
C598        C  0.28850841  0.98628792  0.97276351    -0.18180
C599        C  0.28889570  0.92959718  0.97855276     0.10140
C600        C  0.29645557  0.89043623  0.95674631    -0.06980
C601        C  0.30947927  0.90958826  0.93018959    -0.18210
C602        C  0.31177443  0.96655856  0.92474988     0.10170
S603        S  0.27669235  0.91019847  0.01402562    -0.33180
S604        S  0.32839349  0.98681864  0.88993944    -0.33190
H605        H  0.35448468  0.03509935  0.89824292     0.28180
H606        H  0.31250838  0.86341247  0.01354458     0.28180
H607        H  0.27837021  0.01567541  0.98917907     0.18770
H608        H  0.31563438  0.88019241  0.91330115     0.18780
C609        C  0.72810211  0.42047273  0.92672511    -0.07050
C610        C  0.75533315  0.42599199  0.95288693    -0.18180
C611        C  0.75626262  0.47687826  0.96711751     0.10140
C612        C  0.73029258  0.52506433  0.95524182    -0.06980
C613        C  0.70278551  0.52011733  0.92920406    -0.18210
C614        C  0.70196236  0.46907828  0.91474571     0.10170
S615        S  0.79172501  0.47775655  0.00059387    -0.33180
S616        S  0.67003613  0.47027730  0.88026288    -0.33190
H617        H  0.71544239  0.44352860  0.86765302     0.28180
H618        H  0.74591743  0.50158257  0.01404970     0.28180
H619        H  0.77613727  0.39017743  0.96253764     0.18770
H620        H  0.68285877  0.55655938  0.91972157     0.18780
C621        C  0.73728865  0.03085058  0.93608933    -0.07050
C622        C  0.75721268  0.99333710  0.91584258    -0.18180
C623        C  0.75632383  0.93583379  0.91946775     0.10140
C624        C  0.73576892  0.91369244  0.94420528    -0.06980
C625        C  0.71252220  0.95088209  0.96379783    -0.18210
C626        C  0.71261097  0.00891613  0.95989543     0.10170
S627        S  0.78567620  0.89261519  0.89246492    -0.33180
S628        S  0.68640794  0.05255052  0.98742332    -0.33190
H629        H  0.66453021  0.09425108  0.96950656     0.28180
H630        H  0.75500451  0.84610941  0.89803685     0.28180
H631        H  0.77631516  0.00908771  0.89745993     0.18770
H632        H  0.69753767  0.93484850  0.98315404     0.18780
C633        C  0.57477382  0.18632111  0.88994002    -0.07050
C634        C  0.55361479  0.19380554  0.91659165    -0.18180
C635        C  0.49979055  0.18096087  0.92163244     0.10140
C636        C  0.46630677  0.16226217  0.89930364    -0.06980
C637        C  0.48951144  0.14776366  0.87371384    -0.18210
C638        C  0.54396037  0.15987867  0.86870804     0.10170
S639        S  0.47370863  0.19531960  0.95598066    -0.33180
S640        S  0.56970678  0.14501151  0.83432660    -0.33190
H641        H  0.60769837  0.18710956  0.83370152     0.28180
H642        H  0.42842200  0.16116221  0.95311680     0.28180
H643        H  0.57848351  0.21169786  0.93323824     0.18770
H644        H  0.46357356  0.13332815  0.85658213     0.18780
C645        C  0.96092916  0.29146513  0.94037474    -0.07050
C646        C  0.98945669  0.31883504  0.91992964    -0.18180
C647        C  0.04678057  0.31429322  0.91981178     0.10140
C648        C  0.07545085  0.28414731  0.94134639    -0.06980
C649        C  0.04697515  0.26750351  0.96471224    -0.18210
C650        C  0.98970755  0.27157768  0.96458953     0.10170
S651        S  0.07922230  0.33877710  0.88913574    -0.33180
S652        S  0.95536621  0.24450341  0.99419880    -0.33190
H653        H  0.90440795  0.27210435  0.98808664     0.28180
H654        H  0.10829841  0.28877487  0.88389004     0.28180
H655        H  0.96740559  0.33567860  0.90163067     0.18770
H656        H  0.06897355  0.24608683  0.98178176     0.18780
C657        C  0.59561150  0.51241532  0.27886541    -0.07050
C658        C  0.58653802  0.49378281  0.30609518    -0.18180
C659        C  0.61186869  0.51845137  0.32956784     0.10140
C660        C  0.64632567  0.56331972  0.32569478    -0.06980
C661        C  0.65559247  0.58115076  0.29839555    -0.18210
C662        C  0.63154963  0.55589672  0.27512969     0.10170
S663        S  0.60027396  0.48923864  0.36341150    -0.33180
S664        S  0.65048760  0.57953344  0.24113515    -0.33190
H665        H  0.65592284  0.52610335  0.22967381     0.28180
H666        H  0.65085973  0.50312572  0.37582576     0.28180
H667        H  0.55952903  0.45993773  0.30908725     0.18770
H668        H  0.68247902  0.61501000  0.29507827     0.18780
C669        C  0.62836025  0.81331999  0.34567497    -0.07050
C670        C  0.58216372  0.78699962  0.33451095    -0.18180
C671        C  0.55888888  0.80147725  0.30832073     0.10140
C672        C  0.58197030  0.84360605  0.29259591    -0.06980
C673        C  0.62825371  0.86982774  0.30366928    -0.18210
C674        C  0.65215777  0.85459282  0.32963202     0.10170
S675        S  0.49840655  0.76618943  0.29694486    -0.33180
S676        S  0.71144170  0.89104470  0.34147494    -0.33190
H677        H  0.74679860  0.84376695  0.33968556     0.28180
H678        H  0.47090513  0.81378349  0.28593655     0.28180
H679        H  0.56367615  0.75492016  0.34639243     0.18770
H680        H  0.64651175  0.90207074  0.29180889     0.18780
C681        C  0.33964770  0.47831416  0.30860526    -0.07050
C682        C  0.28745155  0.46141316  0.31549034    -0.18180
C683        C  0.25712004  0.49014497  0.33558848     0.10140
C684        C  0.27948454  0.53695338  0.34868327    -0.06980
C685        C  0.33270237  0.55224657  0.34249968    -0.18210
C686        C  0.36315533  0.52323157  0.32271247     0.10170
S687        S  0.19094110  0.46463608  0.34390984    -0.33180
S688        S  0.43154283  0.54567053  0.31629914    -0.33190
H689        H  0.45465895  0.49275355  0.31071594     0.28180
H690        H  0.19389246  0.47981309  0.37235196     0.28180
H691        H  0.27009099  0.42613441  0.30493869     0.18770
H692        H  0.35018560  0.58793798  0.35262818     0.18780
C693        C  0.28936396  0.81359365  0.36167126    -0.07050
C694        C  0.34437921  0.82968459  0.36310537    -0.18180
C695        C  0.36738112  0.85850583  0.34140974     0.10140
C696        C  0.33535810  0.87178762  0.31711421    -0.06980
C697        C  0.28093828  0.85509620  0.31499285    -0.18210
C698        C  0.25765974  0.82601204  0.33681055     0.10170
S699        S  0.43895270  0.87475653  0.34558216    -0.33180
S700        S  0.18834407  0.80449546  0.33085579    -0.33190
H701        H  0.20203648  0.74915296  0.33757075     0.28180
H702        H  0.43353789  0.92775141  0.33381302     0.28180
H703        H  0.37001872  0.82065149  0.38157381     0.18770
H704        H  0.25670184  0.86403737  0.29602958     0.18780
C705        C  0.01627792  0.73593762  0.38154400    -0.07050
C706        C  0.99037916  0.70265025  0.36155951    -0.18180
C707        C  0.93343491  0.70375516  0.35863568     0.10140
C708        C  0.90201892  0.73821294  0.37639812    -0.06980
C709        C  0.92785481  0.77728900  0.39342180    -0.18210
C710        C  0.98516455  0.77607807  0.39642665     0.10170
S711        S  0.90303876  0.65718315  0.33356345    -0.33180
S712        S  0.01539112  0.82104807  0.42218571    -0.33190
H713        H  0.04618842  0.77819295  0.43585615     0.28180
H714        H  0.85284815  0.68774324  0.33019320     0.28180
H715        H  0.01451256  0.67294403  0.34950408     0.18770
H716        H  0.90351141  0.80426109  0.40682568     0.18780
C717        C  0.40801263  0.63423577  0.45113358    -0.07050
C718        C  0.43107525  0.60853184  0.42764414    -0.18180
C719        C  0.48556889  0.61719660  0.42111562     0.10140
C720        C  0.51841955  0.64840200  0.43968756    -0.06980
C721        C  0.49790252  0.66438450  0.46575241    -0.18210
C722        C  0.44292962  0.65715873  0.47173712     0.10170
S723        S  0.50676427  0.59645882  0.38668326    -0.33180
S724        S  0.41755201  0.68416674  0.50431648    -0.33190
H725        H  0.36847507  0.65528670  0.50314521     0.28180
H726        H  0.52649900  0.64830587  0.37968395     0.28180
H727        H  0.40445450  0.59038528  0.41180315     0.18770
H728        H  0.52352906  0.68655573  0.48055665     0.18780
C729        C  0.17398911  0.39881691  0.46317331    -0.07050
C730        C  0.21128137  0.43675538  0.47400346    -0.18180
C731        C  0.21038600  0.49199263  0.46505616     0.10140
C732        C  0.17205871  0.51064957  0.44375014    -0.06980
C733        C  0.13362466  0.47237187  0.43354070    -0.18210
C734        C  0.13413312  0.41725593  0.44297343     0.10170
S735        S  0.25948401  0.53566475  0.48208854    -0.33180
S736        S  0.08320699  0.37261544  0.42821092    -0.33190
H737        H  0.11282224  0.32239986  0.43316765     0.28180
H738        H  0.22009465  0.57840620  0.48724051     0.28180
H739        H  0.24103513  0.42336395  0.49018332     0.18770
H740        H  0.10363273  0.48476617  0.41733011     0.18780
C741        C  0.16754485  0.89763724  0.44486194    -0.07050
C742        C  0.16195085  0.91946768  0.47185873    -0.18180
C743        C  0.16326400  0.97664493  0.47665223     0.10140
C744        C  0.17337798  0.01264123  0.45428541    -0.06980
C745        C  0.17488422  0.99119671  0.42708897    -0.18210
C746        C  0.17053518  0.93448388  0.42212002     0.10170
S747        S  0.15640886  0.00071743  0.51203727    -0.33180
S748        S  0.17361490  0.91098825  0.38645363    -0.33190
H749        H  0.13897067  0.86674440  0.39031336     0.28180
H750        H  0.12430070  0.04795435  0.50433795     0.28180
H751        H  0.15982914  0.89170251  0.48949037     0.18770
H752        H  0.18197294  0.01844232  0.40973803     0.18780
C753        C  0.74926458  0.51732672  0.42900077    -0.07050
C754        C  0.74698175  0.46835899  0.41291294    -0.18180
C755        C  0.74602334  0.41565220  0.42539129     0.10140
C756        C  0.74860062  0.41079494  0.45486006    -0.06980
C757        C  0.75206063  0.45968445  0.47089759    -0.18210
C758        C  0.75203855  0.51236355  0.45845049     0.10170
S759        S  0.74172337  0.35646452  0.40255439    -0.33180
S760        S  0.75637848  0.57150558  0.48132744    -0.33990
H761        H  0.78499423  0.60413845  0.46283422     0.28180
H762        H  0.77057358  0.31900083  0.42058270     0.28180
H763        H  0.74475011  0.47122556  0.39028472     0.18770
H764        H  0.75396159  0.45688262  0.49354086     0.18780
C765        C  0.74571920  0.90538145  0.43974013    -0.07050
C766        C  0.74761227  0.94378678  0.41778335    -0.18180
C767        C  0.74944378  0.00120710  0.42284356     0.10140
C768        C  0.74900481  0.02176621  0.45059414    -0.06980
C769        C  0.75036596  0.98307032  0.47255245    -0.18210
C770        C  0.74914188  0.92565836  0.46749717     0.10170
S771        S  0.74641836  0.04641185  0.39293541    -0.33180
S772        S  0.74704203  0.88072090  0.49737908    -0.33190
H773        H  0.76988258  0.83355981  0.48414912     0.28180
H774        H  0.77295356  0.09025176  0.40625431     0.28180
H775        H  0.74439105  0.92920881  0.39641228     0.18770
H776        H  0.74891527  0.99785621  0.49390480     0.18780
C777        C  0.91248619  0.18265182  0.51321221    -0.07050
C778        C  0.93825887  0.21858683  0.53193976    -0.18180
C779        C  0.99499684  0.21615454  0.53563269     0.10140
C780        C  0.02617065  0.17829177  0.51950484    -0.06980
C781        C  0.00016005  0.13691165  0.50415976    -0.18210
C782        C  0.94294091  0.13833530  0.50111020     0.10170
S783        S  0.02572090  0.26607328  0.55882036    -0.33180
S784        S  0.91218799  0.08823549  0.47822322    -0.33190
H785        H  0.87265721  0.07402702  0.49754571     0.28180
H786        H  0.07564154  0.23554053  0.56332049     0.28180
H787        H  0.91440592  0.25112084  0.54224467     0.18770
H788        H  0.02433976  0.10719714  0.49214861     0.18780
C789        C  0.40161165  0.27104244  0.44925848    -0.07050
C790        C  0.42419956  0.30600450  0.46974566    -0.18180
C791        C  0.48084057  0.31288462  0.47158825     0.10140
C792        C  0.51462665  0.28587756  0.45190958    -0.06980
C793        C  0.49014685  0.26179990  0.42801996    -0.18210
C794        C  0.43377631  0.25284170  0.42682269     0.10170
S795        S  0.50802011  0.34767253  0.50205975    -0.33180
S796        S  0.40427376  0.21413150  0.39808987    -0.33190
H797        H  0.45183542  0.21022758  0.38204133     0.28180
H798        H  0.53589132  0.29987117  0.51276389     0.28180
H799        H  0.39910293  0.32162102  0.48663766     0.18770
H800        H  0.51622762  0.24292614  0.41235657     0.18780
C801        C  0.34215737  0.06307645  0.59642779    -0.07050
C802        C  0.36197162  0.11097698  0.58443667    -0.18180
C803        C  0.34361852  0.12917317  0.55782610     0.10140
C804        C  0.30223726  0.10060254  0.54306038    -0.06980
C805        C  0.28259203  0.05270660  0.55491966    -0.18210
C806        C  0.30264397  0.03280102  0.58090851     0.10170
S807        S  0.37538233  0.18855645  0.54384714    -0.33180
S808        S  0.27616943  0.96789795  0.59188048    -0.33190
H809        H  0.28104111  0.97604749  0.62073780     0.28180
H810        H  0.32680488  0.21167022  0.53136542     0.28180
H811        H  0.39298778  0.13392416  0.59566087     0.18770
H812        H  0.25214185  0.02963028  0.54346044     0.18780
C813        C  0.65270929  0.12274214  0.54571705    -0.07050
C814        C  0.60502183  0.14617410  0.55765740    -0.18180
C815        C  0.58314513  0.12346576  0.58154360     0.10140
C816        C  0.60937241  0.07611370  0.59384013    -0.06980
C817        C  0.65964815  0.05589955  0.58358213    -0.18210
C818        C  0.68234100  0.07945702  0.56016193     0.10170
S819        S  0.51915034  0.15367759  0.59367298    -0.33180
S820        S  0.74655299  0.04900446  0.54870022    -0.33190
H821        H  0.77345551  0.09934760  0.55025409     0.28180
H822        H  0.49371030  0.10313980  0.59709713     0.28180
H823        H  0.58288857  0.18062742  0.54743971     0.18770
H824        H  0.68013872  0.01980225  0.59316321     0.18780
C825        C  0.62096030  0.43747704  0.60753428    -0.07050
C826        C  0.66838423  0.40326421  0.61156787    -0.18180
C827        C  0.69115410  0.37238541  0.58977614     0.10140
C828        C  0.66765862  0.37668391  0.56227553    -0.06980
C829        C  0.62070801  0.41182796  0.55792140    -0.18210
C830        C  0.59744559  0.44245724  0.58009766     0.10170
S831        S  0.74734339  0.32463488  0.59951312    -0.33180
S832        S  0.53611068  0.48406575  0.57225084    -0.33190
H833        H  0.55710755  0.53219714  0.58428272     0.28180
H834        H  0.72626330  0.28021699  0.58404227     0.28180
H835        H  0.68670285  0.39844789  0.63242860     0.18770
H836        H  0.60201938  0.41556111  0.53711552     0.18780
C837        C  0.28424570  0.35843573  0.55693944    -0.07050
C838        C  0.33638757  0.33727836  0.56552615    -0.18180
C839        C  0.36780518  0.36467123  0.58549685     0.10140
C840        C  0.34600851  0.41406505  0.59717499    -0.06980
C841        C  0.29405023  0.43561871  0.58819683    -0.18210
C842        C  0.26300816  0.40827048  0.56813283     0.10170
S843        S  0.43586507  0.33598227  0.59393714    -0.33180
S844        S  0.19883698  0.44053862  0.55587044    -0.33190
H845        H  0.16723753  0.40245006  0.56980294     0.28180
H846        H  0.46139886  0.38706084  0.59497765     0.28180
H847        H  0.35285631  0.29941582  0.55650290     0.18770
H848        H  0.27787150  0.47442923  0.59661886     0.18780
C849        C  0.46915368  0.68960297  0.62030375    -0.07050
C850        C  0.41598875  0.71474170  0.62127814    -0.18180
C851        C  0.40888666  0.77178439  0.62059389     0.10140
C852        C  0.45565592  0.80312004  0.61748700    -0.06980
C853        C  0.50507350  0.77701960  0.60888423    -0.18210
C854        C  0.51237402  0.71993664  0.61020860     0.10170
S855        S  0.34201888  0.80125426  0.62866404    -0.33180
S856        S  0.57853357  0.68962043  0.60148041    -0.33190
H857        H  0.55650166  0.64179800  0.58951502     0.28180
H858        H  0.35949237  0.81808605  0.65560919     0.28180
H859        H  0.38098015  0.69090889  0.62650827     0.18770
H860        H  0.54005310  0.80131555  0.60411604     0.18780
C861        C  0.49540145  0.29942180  0.69276118    -0.07050
C862        C  0.46727800  0.27514042  0.71421055    -0.18180
C863        C  0.47001667  0.21790977  0.71723045     0.10140
C864        C  0.50107051  0.18534875  0.69831269    -0.06980
C865        C  0.53334223  0.21020861  0.67876420    -0.18210
C866        C  0.52933537  0.26680396  0.67508404     0.10170
S867        S  0.43123552  0.18806949  0.74453437    -0.33180
S868        S  0.56567332  0.29432987  0.64611171    -0.33190
H869        H  0.52737003  0.33802499  0.64009247     0.28180
H870        H  0.46079268  0.13686965  0.74495519     0.28180
H871        H  0.44349335  0.30063008  0.72852251     0.18770
H872        H  0.55617228  0.18512491  0.66385089     0.18780
C873        C  0.25977101  0.95156779  0.68394494    -0.07050
C874        C  0.24777250  0.90514622  0.69985359    -0.18180
C875        C  0.19445016  0.89854471  0.71010885     0.10140
C876        C  0.15193268  0.93988564  0.70496023    -0.06980
C877        C  0.16272333  0.98231471  0.68630604    -0.18210
C878        C  0.21522866  0.98896793  0.67592683     0.10170
S879        S  0.18398230  0.83695691  0.72993594    -0.33180
S880        S  0.22426614  0.04886396  0.65406050    -0.33190
H881        H  0.16831073  0.06340983  0.64896553     0.28180
H882        H  0.12974498  0.83098933  0.71960101     0.28180
H883        H  0.28060013  0.87539608  0.70559982     0.18770
H884        H  0.13082111  0.01354512  0.68147696     0.18780
C885        C  0.76529000  0.97372592  0.70669742    -0.07050
C886        C  0.75020649  0.92537394  0.69254195    -0.18180
C887        C  0.69488519  0.91650442  0.68436932     0.10140
C888        C  0.65264906  0.95759987  0.68947400    -0.06980
C889        C  0.66709769  0.00323075  0.70594020    -0.18210
C890        C  0.72203363  0.01135754  0.71490787     0.10170
S891        S  0.68120728  0.85160238  0.66744580    -0.33180
S892        S  0.73553581  0.07050940  0.73698083    -0.33190
H893        H  0.68044751  0.08741469  0.74134202     0.28180
H894        H  0.62813880  0.84802641  0.67807399     0.28180
H895        H  0.78189287  0.89484425  0.68704997     0.18770
H896        H  0.63560971  0.03455091  0.71052581     0.18780
C897        C  0.13761874  0.05058741  0.80564169    -0.07050
C898        C  0.12508547  0.10596724  0.81249486    -0.18180
C899        C  0.15125796  0.13191015  0.83518492     0.10140
C900        C  0.19154339  0.10213894  0.85167930    -0.06980
C901        C  0.20773369  0.04844586  0.84326309    -0.18210
C902        C  0.18164696  0.02258560  0.82040787     0.10170
S903        S  0.13003178  0.20263815  0.84231927    -0.33180
S904        S  0.20613412  0.95374017  0.81127748    -0.33190
H905        H  0.19273885  0.95871363  0.78251567     0.28180
H906        H  0.18031740  0.21763398  0.85469280     0.28180
H907        H  0.09272195  0.12860865  0.80098917     0.18770
H908        H  0.23903893  0.02541323  0.85533817     0.18780
C909        C  0.87442360  0.07893473  0.79499687    -0.07050
C910        C  0.82354971  0.06479686  0.80499119    -0.18180
C911        C  0.80586202  0.08377289  0.83091257     0.10140
C912        C  0.84099835  0.11614678  0.84805704    -0.06980
C913        C  0.89278950  0.12886770  0.83812468    -0.18210
C914        C  0.90958715  0.11096117  0.81170372     0.10170
S915        S  0.73827411  0.06429421  0.84050852    -0.33180
S916        S  0.97661105  0.12741129  0.79983809    -0.33190
H917        H  0.99501697  0.15355346  0.82453102     0.28180
H918        H  0.71576787  0.11832908  0.83660304     0.28180
H919        H  0.79679646  0.03962002  0.79218722     0.18770
H920        H  0.91987465  0.15365614  0.85088489     0.18780
C921        C  0.80214028  0.55934668  0.69583700    -0.07050
C922        C  0.77147586  0.56155289  0.72023956    -0.18180
C923        C  0.71411185  0.56997383  0.71896332     0.10140
C924        C  0.68617463  0.57631726  0.69274175    -0.06980
C925        C  0.71765690  0.58088576  0.66869687    -0.18210
C926        C  0.77523780  0.57211766  0.66995373     0.10170
S927        S  0.67771788  0.56382193  0.75105191    -0.33180
S928        S  0.81127299  0.57189458  0.63756743    -0.33190
H929        H  0.86294567  0.58372836  0.64957244     0.28180
H930        H  0.62837809  0.58993709  0.74095509     0.28180
H931        H  0.79176504  0.55199292  0.74024953     0.18770
H932        H  0.69687730  0.58449817  0.64836136     0.18780
C933        C  0.30269155  0.51536112  0.69322496    -0.07050
C934        C  0.27620355  0.56613348  0.70030954    -0.18180
C935        C  0.21999392  0.57046998  0.70691776     0.10140
C936        C  0.18766691  0.52284995  0.70674363    -0.06980
C937        C  0.21385489  0.47228400  0.69886250    -0.18210
C938        C  0.27028294  0.46796742  0.69255914     0.10170
S939        S  0.19142224  0.63898414  0.71352209    -0.33180
S940        S  0.29773191  0.40124234  0.68193938    -0.33190
H941        H  0.34437383  0.40317120  0.69993602     0.28180
H942        H  0.14005002  0.62947521  0.70044886     0.28180
H943        H  0.29909116  0.60354130  0.69946781     0.18770
H944        H  0.19054335  0.43510865  0.69826631     0.18780
C945        C  0.93895197  0.80194346  0.76730176    -0.07050
C946        C  0.97685992  0.77481143  0.78576538    -0.18180
C947        C  0.98642558  0.71778647  0.78411201     0.10140
C948        C  0.95678528  0.68783302  0.76389752    -0.06980
C949        C  0.91300738  0.71364565  0.74854007    -0.18210
C950        C  0.90354840  0.77081797  0.75017358     0.10170
S951        S  0.03877936  0.68411321  0.80647704    -0.33180
S952        S  0.85173012  0.80230627  0.72700239    -0.33190
H953        H  0.83348706  0.84156491  0.74677893     0.28180
H954        H  0.05110132  0.73079360  0.82275724     0.28180
H955        H  0.00317823  0.79906507  0.79927138     0.18770
H956        H  0.88920208  0.69002080  0.73353585     0.18780
C957        C  0.04676164  0.29669359  0.68923632    -0.07050
C958        C  0.07868177  0.26864040  0.71006061    -0.18180
C959        C  0.07334983  0.21202922  0.71425654     0.10140
C960        C  0.03669372  0.18292380  0.69670248    -0.06980
C961        C  0.01393023  0.20899697  0.67262855    -0.18210
C962        C  0.01954974  0.26546794  0.66842866     0.10170
S963        S  0.10671461  0.18209319  0.74502307    -0.33180
S964        S  0.98653994  0.29645583  0.63771938    -0.33190
H965        H  0.01795366  0.34401775  0.63842633     0.28180
H966        H  0.05715760  0.16522105  0.75600065     0.28180
H967        H  0.10112314  0.29183542  0.72575401     0.18770
H968        H  0.98786860  0.18631110  0.65824675     0.18780
C969        C  0.87176608  0.41605480  0.77612902    -0.07050
C970        C  0.88754140  0.43098673  0.80362342    -0.18180
C971        C  0.86273272  0.40836949  0.82703131     0.10140
C972        C  0.82107910  0.36963963  0.82307753    -0.06980
C973        C  0.80447875  0.35607680  0.79554476    -0.18210
C974        C  0.82907956  0.37860934  0.77220159     0.10170
S975        S  0.88480411  0.43188803  0.86123359    -0.33180
S976        S  0.80388341  0.36076303  0.73745544    -0.33190
H977        H  0.76400993  0.32406141  0.74560671     0.28180
H978        H  0.83254137  0.43047403  0.87299532     0.28180
H979        H  0.91971400  0.46019359  0.80690860     0.18770
H980        H  0.77247230  0.32674056  0.79229758     0.18780
C981        C  0.21517538  0.36245307  0.84061765    -0.07050
C982        C  0.21676284  0.34549742  0.81256326    -0.18180
C983        C  0.18540150  0.37359626  0.79194810     0.10140
C984        C  0.15041234  0.41856373  0.79975798    -0.06980
C985        C  0.14974777  0.43591720  0.82782545    -0.18210
C986        C  0.18249382  0.40912250  0.84821726     0.10170
S987        S  0.19374552  0.35149028  0.75625305    -0.33180
S988        S  0.18168494  0.43767575  0.88315487    -0.33190
H989        H  0.23582071  0.42030870  0.89037464     0.28180
H990        H  0.19324882  0.40566104  0.74588458     0.28180
H991        H  0.24222057  0.30975285  0.80670075     0.18770
H992        H  0.12352986  0.47086921  0.83400757     0.18780
loop_ 
_geom_bond_atom_site_label_1 
_geom_bond_atom_site_label_2 
_geom_bond_distance 
_geom_bond_site_symmetry_2 
_ccdc_geom_bond_type 
O1           Ni7   1.917       .  S
O1           C22   1.272   1_655  A
O2          Ni25   1.886       .  S
O2           C11   1.263       .  A
O3           Ni7   1.925       .  S
O3          Ni25   1.917       .  S
O3          Ni19   1.949   1_655  S
O3           H26   0.966       .  S
C4           O21   1.280       .  A
C4           O13   1.277       .  A
C4          C984   1.461       .  S
O5          Ni24   1.919       .  S
O5           C11   1.275   1_455  A
O6          Ni24   1.919       .  S
O6            C8   1.272       .  A
Ni7          O10   1.944       .  S
Ni7          O12   1.910       .  S
C8           O18   1.281       .  A
C8          C936   1.517       .  S
O9          Ni25   1.910       .  S
O9           C15   1.263       .  A
O10          C15   1.271       .  A
C11         C948   1.457       .  S
O12          C14   1.273       .  A
O13         Ni24   1.898       .  S
C14          O20   1.282       .  A
C14         C969   1.492       .  S
C15         C921   1.482       .  S
H16          O17   0.966       .  S
O17         Ni25   1.884   1_455  S
O17         Ni19   1.872       .  S
O17         Ni24   1.883       .  S
O18         Ni19   1.956       .  S
Ni19         O23   1.902       .  S
Ni19         O21   1.915       .  S
O20         Ni25   1.965       .  S
C22          O23   1.268       .  A
C22         C957   1.477       .  S
O27         Ni33   1.907       .  S
O27          C48   1.274   1_455  A
O28         Ni51   1.899       .  S
O28          C37   1.266       .  A
O29         Ni33   1.880   1_655  S
O29         Ni51   1.863   1_665  S
O29         Ni45   1.920       .  S
O29          H52   0.965       .  S
C30          O47   1.280       .  A
C30          O39   1.272   1_565  A
C30         C885   1.515       .  S
O31         Ni50   1.922       .  S
O31          C37   1.273   1_655  A
O32         Ni50   1.908       .  S
O32          C34   1.273       .  A
Ni33         O36   1.920       .  S
Ni33         O38   1.919       .  S
C34          O44   1.277       .  A
C34         C909   1.465       .  S
O35         Ni51   1.947       .  S
O35          C41   1.285       .  A
O36          C41   1.280   1_565  A
C37         C960   1.472       .  S
O38          C40   1.267       .  A
O39         Ni50   1.938       .  S
C40          O46   1.278       .  A
C40         C876   1.509       .  S
C41         C897   1.489       .  S
H42          O43   0.966       .  S
O43         Ni51   1.954   1_655  S
O43         Ni45   1.915   1_545  S
O43         Ni50   1.910       .  S
O44         Ni45   1.939   1_545  S
Ni45         O49   1.907       .  S
Ni45         O47   1.949       .  S
O46         Ni51   1.938   1_565  S
C48          O49   1.272       .  A
C48         C945   1.459       .  S
O53         Ni59   1.870       .  S
O53          C74   1.257       .  A
O54         Ni77   1.905       .  S
O54          C63   1.269       .  A
O55         Ni59   1.919       .  S
O55         Ni77   1.933       .  S
O55         Ni71   1.961       .  S
O55          H78   0.966       .  S
C56          O73   1.285       .  A
C56          O65   1.276       .  A
C56         C840   1.449       .  S
O57         Ni76   1.869       .  S
O57          C63   1.263       .  A
O58         Ni76   1.896       .  S
O58          C60   1.264       .  A
Ni59         O62   1.891       .  S
Ni59         O64   1.903       .  S
C60          O70   1.286       .  A
C60         C933   1.507       .  S
O61         Ni77   1.937       .  S
O61          C67   1.273       .  A
O62          C67   1.259       .  A
C63         C849   1.463       .  S
O64          C66   1.271       .  A
O65         Ni76   1.883       .  S
C66          O72   1.278       .  A
C66         C825   1.491       .  S
C67         C924   1.477       .  S
H68          O69   0.963       .  S
O69         Ni77   1.903       .  S
O69         Ni71   1.852       .  S
O69         Ni76   1.859       .  S
O70         Ni71   1.973       .  S
Ni71         O75   1.899       .  S
Ni71         O73   1.926       .  S
O72         Ni77   1.958       .  S
C74          O75   1.266       .  A
C74         C861   1.440       .  S
O79         Ni85   1.891       .  S
O79         C100   1.264       .  A
O80        Ni103   1.898       .  S
O80          C89   1.270       .  A
O81         Ni85   1.912       .  S
O81        Ni103   1.916   1_545  S
O81         Ni97   1.943       .  S
O81         H104   0.966   1_545  S
C82          O99   1.285       .  A
C82          O91   1.278   1_545  A
C82         C816   1.466       .  S
O83        Ni102   1.887       .  S
O83          C89   1.270       .  A
O84        Ni102   1.912       .  S
O84          C86   1.266       .  A
Ni85         O88   1.897       .  S
Ni85         O90   1.924       .  S
C86          O96   1.283       .  A
C86         C888   1.515       .  S
O87        Ni103   1.962       .  S
O87          C93   1.285       .  A
O88          C93   1.263   1_545  A
C89         C852   1.454       .  S
O90          C92   1.274       .  A
O91        Ni102   1.901       .  S
C92          O98   1.270   1_545  A
C92         C801   1.486       .  S
C93         C873   1.503       .  S
H94          O95   0.965       .  S
O95        Ni103   1.921       .  S
O95         Ni97   1.856   1_565  S
O95        Ni102   1.868       .  S
O96         Ni97   1.960   1_565  S
Ni97        O101   1.883       .  S
Ni97         O99   1.942       .  S
O98        Ni103   1.931       .  S
C100        O101   1.263       .  A
C100        C864   1.441       .  S
O105       Ni111   1.913       .  S
O105        C126   1.276       .  A
O106       Ni129   1.907       .  S
O106        C115   1.268       .  A
O107       Ni111   1.877       .  S
O107       Ni129   1.869       .  S
O107       Ni123   1.913       .  S
O107        H130   0.965       .  S
C108        O125   1.275       .  A
C108        O117   1.268       .  A
C108        C768   1.499       .  S
O109       Ni128   1.896       .  S
O109        C115   1.269       .  A
O110       Ni128   1.909       .  S
O110        C112   1.274       .  A
Ni111       O114   1.913       .  S
Ni111       O116   1.914       .  S
C112        O122   1.275       .  A
C112        C813   1.483       .  S
O113       Ni129   1.952       .  S
O113        C119   1.288       .  A
O114        C119   1.279       .  A
C115        C792   1.466       .  S
O116        C118   1.270       .  A
O117       Ni128   1.937       .  S
C118        O124   1.280       .  A
C118        C756   1.501       .  S
C119        C828   1.493       .  S
H120        O121   0.966       .  S
O121       Ni129   1.966       .  S
O121       Ni123   1.909       .  S
O121       Ni128   1.917       .  S
O122       Ni123   1.943       .  S
Ni123       O127   1.885       .  S
Ni123       O125   1.945       .  S
O124       Ni129   1.956       .  S
C126        O127   1.264       .  A
C126        C777   1.453       .  S
O131       Ni137   1.936       .  S
O131        C152   1.276       .  A
O132       Ni155   1.896       .  S
O132        C141   1.268       .  A
O133       Ni137   1.914       .  S
O133       Ni155   1.912       .  S
O133       Ni149   1.934       .  S
O133        H156   0.966       .  S
C134        O151   1.279       .  A
C134        O143   1.276       .  A
C134        C837   1.446       .  S
O135       Ni154   1.898       .  S
O135        C141   1.272       .  A
O136       Ni154   1.918       .  S
O136        C138   1.267       .  A
Ni137       O140   1.949       .  S
Ni137       O142   1.912       .  S
C138        O148   1.273       .  A
C138        C729   1.486       .  S
O139       Ni155   1.907       .  S
O139        C145   1.267       .  A
O140        C145   1.276       .  A
C141        C780   1.450       .  S
O142        C144   1.272       .  A
O143       Ni154   1.896       .  S
C144        O150   1.281       .  A
C144        C804   1.484       .  S
C145        C744   1.479       .  S
H146        O147   0.965       .  S
O147       Ni155   1.889       .  S
O147       Ni149   1.858       .  S
O147       Ni154   1.876       .  S
O148       Ni149   1.935       .  S
Ni149       O153   1.876       .  S
Ni149       O151   1.913       .  S
O150       Ni155   1.957       .  S
C152        O153   1.260       .  A
C152        C789   1.467       .  S
O157       Ni163   1.914       .  S
O157        C178   1.270       .  A
O158       Ni181   1.898       .  S
O158        C167   1.268       .  A
O159       Ni163   1.913       .  S
O159       Ni181   1.916       .  S
O159       Ni175   1.940       .  S
O159        H182   0.966       .  S
C160        O177   1.279       .  A
C160        O169   1.278       .  A
C160        C684   1.460       .  S
O161       Ni180   1.910       .  S
O161        C167   1.274       .  A
O162       Ni180   1.916       .  S
O162        C164   1.271       .  A
Ni163       O166   1.930       .  S
Ni163       O168   1.907       .  S
C164        O174   1.276       .  A
C164        C732   1.512       .  S
O165       Ni181   1.919       .  S
O165        C171   1.269       .  A
O166        C171   1.269       .  A
C167        C705   1.455       .  S
O168        C170   1.274       .  A
O169       Ni180   1.909       .  S
C170        O176   1.279       .  A
C170        C693   1.499       .  S
C171        C741   1.477       .  S
H172        O173   0.964       .  S
O173       Ni181   1.896       .  S
O173       Ni175   1.864       .  S
O173       Ni180   1.878       .  S
O174       Ni175   1.939       .  S
Ni175       O179   1.892       .  S
Ni175       O177   1.914       .  S
O176       Ni181   1.958       .  S
C178        O179   1.264       .  A
C178        C717   1.464       .  S
O183       Ni189   1.910       .  S
O183        C204   1.277       .  A
O184       Ni207   1.889       .  S
O184        C193   1.264       .  A
O185       Ni189   1.876       .  S
O185       Ni207   1.864       .  S
O185       Ni201   1.908       .  S
O185        H208   0.965       .  S
C186        O203   1.274       .  A
C186        O195   1.273       .  A
C186        C765   1.500       .  S
O187       Ni206   1.923       .  S
O187        C193   1.274       .  A
O188       Ni206   1.908       .  S
O188        C190   1.275       .  A
Ni189       O192   1.907       .  S
Ni189       O194   1.925       .  S
C190        O200   1.279       .  A
C190        C669   1.483       .  S
O191       Ni207   1.946       .  S
O191        C197   1.285       .  A
O192        C197   1.278       .  A
C193        C720   1.467       .  S
O194        C196   1.271       .  A
O195       Ni206   1.947       .  S
C196        O202   1.276       .  A
C196        C753   1.501       .  S
C197        C660   1.478       .  S
H198        O199   0.966       .  S
O199       Ni207   1.959       .  S
O199       Ni201   1.912       .  S
O199       Ni206   1.916       .  S
O200       Ni201   1.950       .  S
Ni201       O205   1.897       .  S
Ni201       O203   1.937       .  S
O202       Ni207   1.945       .  S
C204        O205   1.270       .  A
C204        C708   1.456       .  S
O209       Ni215   1.935       .  S
O209        C230   1.281       .  A
O210       Ni233   1.895       .  S
O210        C219   1.266       .  A
O211       Ni215   1.879       .  S
O211       Ni233   1.865       .  S
O211       Ni227   1.902       .  S
O211        H234   0.965       .  S
C212        O229   1.275       .  A
C212        O221   1.271       .  A
C212        C621   1.503       .  S
O213       Ni232   1.911       .  S
O213        C219   1.272       .  A
O214       Ni232   1.915       .  S
O214        C216   1.277       .  A
Ni215       O218   1.929       .  S
Ni215       O220   1.926       .  S
C216        O226   1.273       .  A
C216        C912   1.483       .  S
O217       Ni233   1.945       .  S
O217        C223   1.286       .  A
O218        C223   1.283       .  A
C219        C645   1.466       .  S
O220        C222   1.272       .  A
O221       Ni232   1.939       .  S
C222        O228   1.278       .  A
C222        C609   1.512       .  S
C223        C972   1.494       .  S
H224        O225   0.966       .  S
O225       Ni233   1.962       .  S
O225       Ni227   1.905       .  S
O225       Ni232   1.916       .  S
O226       Ni227   1.930       .  S
Ni227       O231   1.877       .  S
Ni227       O229   1.944       .  S
O228       Ni233   1.941       .  S
C230        O231   1.263       .  A
C230        C633   1.447       .  S
O235       Ni241   1.923       .  S
O235        C256   1.274       .  A
O236       Ni259   1.900       .  S
O236        C245   1.271       .  A
O237       Ni241   1.908       .  S
O237       Ni259   1.913       .  S
O237       Ni253   1.941       .  S
O237        H260   0.966       .  S
C238        O255   1.281       .  A
C238        O247   1.279       .  A
C238        C981   1.453       .  S
O239       Ni258   1.903       .  S
O239        C245   1.273       .  A
O240       Ni258   1.916       .  S
O240        C242   1.268       .  A
Ni241       O244   1.944       .  S
Ni241       O246   1.909       .  S
C242        O252   1.280       .  A
C242        C585   1.508       .  S
O243       Ni259   1.917       .  S
O243        C249   1.270       .  A
O244        C249   1.274       .  A
C245        C636   1.448       .  S
O246        C248   1.272       .  A
O247       Ni258   1.902       .  S
C248        O254   1.283       .  A
C248        C900   1.486       .  S
C249        C597   1.484       .  S
H250        O251   0.965       .  S
O251       Ni259   1.890       .  S
O251       Ni253   1.857       .  S
O251       Ni258   1.863       .  S
O252       Ni253   1.954       .  S
Ni253       O257   1.891       .  S
Ni253       O255   1.917       .  S
O254       Ni259   1.969       .  S
C256        O257   1.264       .  A
C256        C648   1.463       .  S
O261       Ni267   1.914       .  S
O261        C282   1.272       .  A
O262       Ni285   1.890   1_554  S
O262        C271   1.267       .  A
O263       Ni267   1.918       .  S
O263       Ni285   1.912       .  S
O263       Ni279   1.944       .  S
O263        H286   0.966       .  S
C264        O281   1.281       .  A
C264        O273   1.277       .  A
C264        C549   1.461       .  S
O265       Ni284   1.927       .  S
O265        C271   1.281       .  A
O266       Ni284   1.929       .  S
O266        C268   1.273   1_554  A
Ni267       O270   1.938       .  S
Ni267       O272   1.902       .  S
C268        O278   1.276       .  A
C268        C588   1.498       .  S
O269       Ni285   1.921       .  S
O269        C275   1.268       .  A
O270        C275   1.270       .  A
C271        C561   1.465       .  S
O272        C274   1.271   1_556  A
O273       Ni284   1.914       .  S
C274        O280   1.280       .  A
C274        C537   1.480       .  S
C275        C600   1.487       .  S
H276        O277   0.966       .  S
O277       Ni285   1.891   1_554  S
O277       Ni279   1.865   1_554  S
O277       Ni284   1.884       .  S
O278       Ni279   1.941       .  S
Ni279       O283   1.896       .  S
Ni279       O281   1.918   1_556  S
O280       Ni285   1.954   1_554  S
C282        O283   1.265       .  A
C282        C573   1.466       .  S
O287       Ni293   1.894   1_556  S
O287        C308   1.271       .  A
O288       Ni311   1.889       .  S
O288        C297   1.263       .  A
O289       Ni293   1.873       .  S
O289       Ni311   1.856   1_554  S
O289       Ni305   1.913   1_554  S
O289        H312   0.965       .  S
C290        O307   1.275       .  A
C290        O299   1.270       .  A
C290        C624   1.499       .  S
O291       Ni310   1.919       .  S
O291        C297   1.272       .  A
O292       Ni310   1.913       .  S
O292        C294   1.276   1_556  A
Ni293       O296   1.906       .  S
Ni293       O298   1.922   1_554  S
C294        O304   1.281       .  A
C294        C513   1.480       .  S
O295       Ni311   1.941   1_554  S
O295        C301   1.287       .  A
O296        C301   1.276       .  A
C297        C576   1.464       .  S
O298        C300   1.268       .  A
O299       Ni310   1.936       .  S
C300        O306   1.276       .  A
C300        C612   1.499       .  S
C301        C528   1.492       .  S
H302        O303   0.966       .  S
O303       Ni311   1.964       .  S
O303       Ni305   1.919       .  S
O303       Ni310   1.916       .  S
O304       Ni305   1.950   1_554  S
Ni305       O309   1.906       .  S
Ni305       O307   1.939       .  S
O306       Ni311   1.949       .  S
C308        O309   1.271       .  A
C308        C564   1.453   1_556  S
O313       Ni319   1.901       .  S
O313        C334   1.266       .  A
O314       Ni337   1.909       .  S
O314        C323   1.272       .  A
O315       Ni319   1.896       .  S
O315       Ni337   1.930       .  S
O315       Ni331   1.942       .  S
O315        H338   0.966       .  S
C316        O333   1.279       .  A
C316        O325   1.278       .  A
C316        C681   1.452       .  S
O317       Ni336   1.896       .  S
O317        C323   1.271       .  A
O318       Ni336   1.915       .  S
O318        C320   1.267       .  A
Ni319       O322   1.893       .  S
Ni319       O324   1.904       .  S
C320        O330   1.272       .  A
C320        C477   1.490       .  S
O321       Ni337   1.938       .  S
O321        C327   1.271       .  A
O322        C327   1.266       .  A
C323        C492   1.454       .  S
O324        C326   1.275       .  A
O325       Ni336   1.909       .  S
C326        O332   1.283       .  A
C326        C657   1.475       .  S
C327        C465   1.503       .  S
H328        O329   0.966       .  S
O329       Ni337   1.903       .  S
O329       Ni331   1.861       .  S
O329       Ni336   1.879       .  S
O330       Ni331   1.921       .  S
Ni331       O335   1.907       .  S
Ni331       O333   1.914       .  S
O332       Ni337   1.957       .  S
C334        O335   1.265       .  A
C334        C501   1.472       .  S
O339       Ni345   1.931       .  S
O339        C360   1.282       .  A
O340       Ni363   1.893       .  S
O340        C349   1.263       .  A
O341       Ni345   1.888   1_565  S
O341       Ni363   1.868       .  S
O341       Ni357   1.902       .  S
O341        H364   0.966       .  S
C342        O359   1.272       .  A
C342        O351   1.272       .  A
C342        C456   1.502       .  S
O343       Ni362   1.923       .  S
O343        C349   1.274       .  A
O344       Ni362   1.910       .  S
O344        C346   1.275       .  A
Ni345       O348   1.931   1_545  S
Ni345       O350   1.934       .  S
C346        O356   1.280       .  A
C346        C672   1.479       .  S
O347       Ni363   1.924       .  S
O347        C353   1.278       .  A
O348        C353   1.280       .  A
C349        C504   1.473       .  S
O350        C352   1.274   1_545  A
O351       Ni362   1.947       .  S
C352        O358   1.276       .  A
C352        C441   1.507       .  S
C353        C696   1.473       .  S
H354        O355   0.966       .  S
O355       Ni363   1.954       .  S
O355       Ni357   1.912       .  S
O355       Ni362   1.921       .  S
O356       Ni357   1.948       .  S
Ni357       O361   1.887   1_565  S
Ni357       O359   1.935       .  S
O358       Ni363   1.937       .  S
C360        O361   1.266       .  A
C360        C489   1.463       .  S
O365       Ni371   1.918       .  S
O365        C386   1.268   1_655  A
O366       Ni389   1.889       .  S
O366        C375   1.268       .  A
O367       Ni371   1.908       .  S
O367       Ni389   1.922       .  S
O367       Ni383   1.925   1_655  S
O367        H390   0.966       .  S
C368        O385   1.275       .  A
C368        O377   1.279       .  A
C368        C552   1.462       .  S
O369       Ni388   1.913       .  S
O369        C375   1.277   1_455  A
O370       Ni388   1.925       .  S
O370        C372   1.271       .  A
Ni371       O374   1.903       .  S
Ni371       O376   1.926       .  S
C372        O382   1.273       .  A
C372        C480   1.493       .  S
O373       Ni389   1.938       .  S
O373        C379   1.275       .  A
O374        C379   1.264       .  A
C375        C417   1.452       .  S
O376        C378   1.276       .  A
O377       Ni388   1.921       .  S
C378        O384   1.273       .  A
C378        C525   1.476       .  S
C379        C468   1.500       .  S
H380        O381   0.963   1_655  S
O381       Ni389   1.904   1_455  S
O381       Ni383   1.854       .  S
O381       Ni388   1.879       .  S
O382       Ni383   1.928       .  S
Ni383       O387   1.873       .  S
Ni383       O385   1.910       .  S
O384       Ni389   1.941       .  S
C386        O387   1.252       .  A
C386        C429   1.450       .  S
O391       Ni397   1.901       .  S
O391        C412   1.275   1_455  A
O392       Ni415   1.870       .  S
O392        C401   1.256       .  A
O393       Ni397   1.879   1_665  S
O393       Ni415   1.855   1_655  S
O393       Ni409   1.918       .  S
O393        H416   0.965       .  S
C394        O411   1.278       .  A
C394        O403   1.271       .  A
C394        C453   1.499       .  S
O395       Ni414   1.920       .  S
O395        C401   1.271   1_655  A
O396       Ni414   1.909       .  S
O396        C398   1.272       .  A
Ni397       O400   1.914   1_545  S
Ni397       O402   1.931   1_545  S
C398        O408   1.277       .  A
C398        C516   1.476       .  S
O399       Ni415   1.937       .  S
O399        C405   1.281       .  A
O400        C405   1.280       .  A
C401        C432   1.447       .  S
O402        C404   1.272       .  A
O403       Ni414   1.930       .  S
C404        O410   1.276       .  A
C404        C444   1.520       .  S
C405        C540   1.480       .  S
H406        O407   0.966       .  S
O407       Ni415   1.950   1_655  S
O407       Ni409   1.916       .  S
O407       Ni414   1.920       .  S
O408       Ni409   1.943       .  S
Ni409       O413   1.896   1_565  S
Ni409       O411   1.944       .  S
O410       Ni415   1.946       .  S
C412        O413   1.270       .  A
C412        C420   1.448       .  S
C417        C418   1.398       .  A
C417        C422   1.412       .  A
C418        C419   1.386       .  A
C418        H427   1.085   1_655  S
C419        C420   1.407       .  A
C419        S423   1.805   1_655  S
C420        C421   1.398       .  A
C421        C422   1.394       .  A
C421        H428   1.084       .  S
C422        S424   1.800       .  S
S423        H426   1.407   1_455  S
S424        H425   1.406       .  S
C429        C430   1.397       .  A
C429        C434   1.403       .  A
C430        C431   1.388       .  A
C430        H439   1.081       .  S
C431        C432   1.408       .  A
C431        S435   1.803       .  S
C432        C433   1.401       .  A
C433        C434   1.393       .  A
C433        H440   1.084       .  S
C434        S436   1.800       .  S
S435        H438   1.398       .  S
S436        H437   1.408       .  S
C441        C442   1.405       .  A
C441        C446   1.417   1_565  A
C442        C443   1.405       .  A
C442        H451   1.084       .  S
C443        C444   1.423       .  A
C443        S447   1.797       .  S
C444        C445   1.416   1_565  A
C445        C446   1.418       .  A
C445        H452   1.083       .  S
C446        S448   1.802       .  S
S447        H450   1.408       .  S
S448        H449   1.406       .  S
C453        C454   1.409       .  A
C453        C458   1.413       .  A
C454        C455   1.417       .  A
C454        H463   1.084       .  S
C455        C456   1.418       .  A
C455        S459   1.800   1_565  S
C456        C457   1.407       .  A
C457        C458   1.409       .  A
C457        H464   1.083       .  S
C458        S460   1.807       .  S
S459        H462   1.403       .  S
S460        H461   1.407       .  S
C465        C466   1.403       .  A
C465        C470   1.420       .  A
C466        C467   1.380       .  A
C466        H475   1.084       .  S
C467        C468   1.422       .  A
C467        S471   1.809       .  S
C468        C469   1.414       .  A
C469        C470   1.421       .  A
C469        H476   1.082       .  S
C470        S472   1.797       .  S
S471        H474   1.408       .  S
S472        H473   1.407       .  S
C477        C478   1.400       .  A
C477        C482   1.417       .  A
C478        C479   1.396       .  A
C478        H487   1.082       .  S
C479        C480   1.418       .  A
C479        S483   1.803       .  S
C480        C481   1.408       .  A
C481        C482   1.411       .  A
C481        H488   1.083       .  S
C482        S484   1.801       .  S
S483        H486   1.406       .  S
S484        H485   1.407       .  S
C489        C490   1.398       .  A
C489        C494   1.415       .  A
C490        C491   1.389       .  A
C490        H499   1.084       .  S
C491        C492   1.410       .  A
C491        S495   1.806       .  S
C492        C493   1.398       .  A
C493        C494   1.397       .  A
C493        H500   1.084       .  S
C494        S496   1.799       .  S
S495        H498   1.407       .  S
S496        H497   1.407       .  S
C501        C502   1.402       .  A
C501        C506   1.411       .  A
C502        C503   1.400       .  A
C502        H511   1.084       .  S
C503        C504   1.417       .  A
C503        S507   1.802       .  S
C504        C505   1.402       .  A
C505        C506   1.393       .  A
C505        H512   1.084       .  S
C506        S508   1.803       .  S
S507        H510   1.403       .  S
S508        H509   1.408       .  S
C513        C514   1.405       .  A
C513        C518   1.414       .  A
C514        C515   1.401       .  A
C514        H523   1.084       .  S
C515        C516   1.412       .  A
C515        S519   1.803       .  S
C516        C517   1.403       .  A
C517        C518   1.401       .  A
C517        H524   1.084       .  S
C518        S520   1.803       .  S
S519        H522   1.407       .  S
S520        H521   1.407   1_554  S
C525        C526   1.394       .  A
C525        C530   1.408       .  A
C526        C527   1.396       .  A
C526        H535   1.077       .  S
C527        C528   1.424       .  A
C527        S531   1.803       .  S
C528        C529   1.408       .  A
C529        C530   1.399       .  A
C529        H536   1.084       .  S
C530        S532   1.789       .  S
S531        H534   1.408       .  S
S532        H533   1.407       .  S
C537        C538   1.406       .  A
C537        C542   1.414       .  A
C538        C539   1.407       .  A
C538        H547   1.084       .  S
C539        C540   1.416       .  A
C539        S543   1.803       .  S
C540        C541   1.402       .  A
C541        C542   1.392       .  A
C541        H548   1.084       .  S
C542        S544   1.803   1_554  S
S543        H546   1.407       .  S
S544        H545   1.402       .  S
C549        C550   1.397       .  A
C549        C554   1.411       .  A
C550        C551   1.391       .  A
C550        H559   1.083       .  S
C551        C552   1.411       .  A
C551        S555   1.806       .  S
C552        C553   1.402       .  A
C553        C554   1.398       .  A
C553        H560   1.084       .  S
C554        S556   1.798       .  S
S555        H558   1.407       .  S
S556        H557   1.405       .  S
C561        C562   1.399       .  A
C561        C566   1.416       .  A
C562        C563   1.388       .  A
C562        H571   1.084       .  S
C563        C564   1.410       .  A
C563        S567   1.804       .  S
C564        C565   1.395   1_554  A
C565        C566   1.395   1_556  A
C565        H572   1.084       .  S
C566        S568   1.794   1_554  S
S567        H570   1.407       .  S
S568        H569   1.404   1_556  S
C573        C574   1.402       .  A
C573        C578   1.414       .  A
C574        C575   1.393   1_455  A
C574        H583   1.084       .  S
C575        C576   1.409       .  A
C575        S579   1.803       .  S
C576        C577   1.400       .  A
C577        C578   1.395   1_655  A
C577        H584   1.085       .  S
C578        S580   1.798   1_556  S
S579        H582   1.407       .  S
S580        H581   1.408       .  S
C585        C586   1.416       .  A
C585        C590   1.414       .  A
C586        C587   1.410       .  A
C586        H595   1.084       .  S
C587        C588   1.410       .  A
C587        S591   1.803       .  S
C588        C589   1.410       .  A
C589        C590   1.410       .  A
C589        H596   1.080   1_556  S
C590        S592   1.801       .  S
S591        H594   1.406       .  S
S592        H593   1.407       .  S
C597        C598   1.399   1_545  A
C597        C602   1.417   1_545  A
C598        C599   1.401       .  A
C598        H607   1.084   1_565  S
C599        C600   1.417       .  A
C599        S603   1.798   1_556  S
C600        C601   1.403       .  A
C601        C602   1.408       .  A
C601        H608   1.084       .  S
C602        S604   1.799       .  S
S603        H606   1.401       .  S
S604        H605   1.403   1_565  S
C609        C610   1.406       .  A
C609        C614   1.428       .  A
C610        C611   1.405       .  A
C610        H619   1.084       .  S
C611        C612   1.416       .  A
C611        S615   1.795   1_556  S
C612        C613   1.402       .  A
C613        C614   1.414       .  A
C613        H620   1.084       .  S
C614        S616   1.801       .  S
S615        H618   1.406       .  S
S616        H617   1.408       .  S
C621        C622   1.408   1_545  A
C621        C626   1.417       .  A
C622        C623   1.405       .  A
C622        H631   1.084   1_565  S
C623        C624   1.413       .  A
C623        S627   1.804       .  S
C624        C625   1.411       .  A
C625        C626   1.418   1_565  A
C625        H632   1.084       .  S
C626        S628   1.799       .  S
S627        H630   1.407       .  S
S628        H629   1.404       .  S
C633        C634   1.396       .  A
C633        C638   1.411       .  A
C634        C635   1.387       .  A
C634        H643   1.085       .  S
C635        C636   1.408       .  A
C635        S639   1.805       .  S
C636        C637   1.400       .  A
C637        C638   1.396       .  A
C637        H644   1.084       .  S
C638        S640   1.806       .  S
S639        H642   1.407       .  S
S640        H641   1.405       .  S
C645        C646   1.400       .  A
C645        C650   1.411       .  A
C646        C647   1.395   1_655  A
C646        H655   1.084       .  S
C647        C648   1.414       .  A
C647        S651   1.800       .  S
C648        C649   1.401       .  A
C649        C650   1.393   1_455  A
C649        H656   1.084       .  S
C650        S652   1.804       .  S
S651        H654   1.403       .  S
S652        H653   1.408       .  S
C657        C658   1.406       .  A
C657        C662   1.411       .  A
C658        C659   1.406       .  A
C658        H667   1.084       .  S
C659        C660   1.415       .  A
C659        S663   1.803       .  S
C660        C661   1.403       .  A
C661        C662   1.392       .  A
C661        H668   1.084       .  S
C662        S664   1.804       .  S
S663        H666   1.403       .  S
S664        H665   1.406       .  S
C669        C670   1.405       .  A
C669        C674   1.415       .  A
C670        C671   1.398       .  A
C670        H679   1.084       .  S
C671        C672   1.414       .  A
C671        S675   1.800       .  S
C672        C673   1.404       .  A
C673        C674   1.399       .  A
C673        H680   1.084       .  S
C674        S676   1.797       .  S
S675        H678   1.405       .  S
S676        H677   1.407       .  S
C681        C682   1.399       .  A
C681        C686   1.409       .  A
C682        C683   1.395       .  A
C682        H691   1.084       .  S
C683        C684   1.413       .  A
C683        S687   1.804       .  S
C684        C685   1.401       .  A
C685        C686   1.390       .  A
C685        H692   1.085       .  S
C686        S688   1.806       .  S
S687        H690   1.407       .  S
S688        H689   1.406       .  S
C693        C694   1.409       .  A
C693        C698   1.423       .  A
C694        C695   1.396       .  A
C694        H703   1.083       .  S
C695        C696   1.410       .  A
C695        S699   1.806       .  S
C696        C697   1.401       .  A
C697        C698   1.406       .  A
C697        H704   1.084       .  S
C698        S700   1.800       .  S
S699        H702   1.403       .  S
S700        H701   1.404       .  S
C705        C706   1.399   1_455  A
C705        C710   1.411   1_455  A
C706        C707   1.388       .  A
C706        H715   1.085   1_655  S
C707        C708   1.408       .  A
C707        S711   1.805       .  S
C708        C709   1.401       .  A
C709        C710   1.397       .  A
C709        H716   1.084       .  S
C710        S712   1.800   1_655  S
S711        H714   1.407       .  S
S712        H713   1.406       .  S
C717        C718   1.402       .  A
C717        C722   1.408       .  A
C718        C719   1.395       .  A
C718        H727   1.085       .  S
C719        C720   1.414       .  A
C719        S723   1.803       .  S
C720        C721   1.403       .  A
C721        C722   1.394       .  A
C721        H728   1.084       .  S
C722        S724   1.803       .  S
S723        H726   1.407       .  S
S724        H725   1.408       .  S
C729        C730   1.404       .  A
C729        C734   1.408       .  A
C730        C731   1.405       .  A
C730        H739   1.085       .  S
C731        C732   1.422       .  A
C731        S735   1.801       .  S
C732        C733   1.418       .  A
C733        C734   1.410       .  A
C733        H740   1.083       .  S
C734        S736   1.803       .  S
S735        H738   1.407       .  S
S736        H737   1.405       .  S
C741        C742   1.401       .  A
C741        C746   1.414       .  A
C742        C743   1.404       .  A
C742        H751   1.084       .  S
C743        C744   1.416   1_565  A
C743        S747   1.797   1_565  S
C744        C745   1.399   1_545  A
C745        C746   1.400       .  A
C745        H752   1.084   1_565  S
C746        S748   1.797       .  S
S747        H750   1.402       .  S
S748        H749   1.406       .  S
C753        C754   1.412       .  A
C753        C758   1.412       .  A
C754        C755   1.412       .  A
C754        H763   1.084       .  S
C755        C756   1.413       .  A
C755        S759   1.802       .  S
C756        C757   1.412       .  A
C757        C758   1.410       .  A
C757        H764   1.084       .  S
C758        S760   1.803       .  S
S759        H762   1.406       .  S
S760        H761   1.406       .  S
C765        C766   1.408       .  A
C765        C770   1.414       .  A
C766        C767   1.412   1_565  A
C766        H775   1.081       .  S
C767        C768   1.415       .  A
C767        S771   1.802       .  S
C768        C769   1.408   1_545  A
C769        C770   1.411       .  A
C769        H776   1.081       .  S
C770        S772   1.802       .  S
S771        H774   1.405       .  S
S772        H773   1.406       .  S
C777        C778   1.398       .  A
C777        C782   1.411       .  A
C778        C779   1.385       .  A
C778        H787   1.085       .  S
C779        C780   1.408   1_655  A
C779        S783   1.806   1_655  S
C780        C781   1.400       .  A
C781        C782   1.394   1_455  A
C781        H788   1.084       .  S
C782        S784   1.800       .  S
S783        H786   1.407       .  S
S784        H785   1.407       .  S
C789        C790   1.406       .  A
C789        C794   1.405       .  A
C790        C791   1.395       .  A
C790        H799   1.084       .  S
C791        C792   1.409       .  A
C791        S795   1.801       .  S
C792        C793   1.407       .  A
C793        C794   1.397       .  A
C793        H800   1.083       .  S
C794        S796   1.807       .  S
S795        H798   1.407       .  S
S796        H797   1.407       .  S
C801        C802   1.405       .  A
C801        C806   1.422       .  A
C802        C803   1.402       .  A
C802        H811   1.083       .  S
C803        C804   1.414       .  A
C803        S807   1.800       .  S
C804        C805   1.400       .  A
C805        C806   1.401       .  A
C805        H812   1.081       .  S
C806        S808   1.808   1_545  S
S807        H810   1.404       .  S
S808        H809   1.395       .  S
C813        C814   1.406       .  A
C813        C818   1.417       .  A
C814        C815   1.398       .  A
C814        H823   1.084       .  S
C815        C816   1.411       .  A
C815        S819   1.804       .  S
C816        C817   1.400       .  A
C817        C818   1.397       .  A
C817        H824   1.084       .  S
C818        S820   1.800       .  S
S819        H822   1.406       .  S
S820        H821   1.407       .  S
C825        C826   1.402       .  A
C825        C830   1.418       .  A
C826        C827   1.395       .  A
C826        H835   1.085       .  S
C827        C828   1.420       .  A
C827        S831   1.805       .  S
C828        C829   1.407       .  A
C829        C830   1.410       .  A
C829        H836   1.083       .  S
C830        S832   1.797       .  S
S831        H834   1.408       .  S
S832        H833   1.405       .  S
C837        C838   1.399       .  A
C837        C842   1.403       .  A
C838        C839   1.388       .  A
C838        H847   1.079       .  S
C839        C840   1.408       .  A
C839        S843   1.804       .  S
C840        C841   1.404       .  A
C841        C842   1.386       .  A
C841        H848   1.084       .  S
C842        S844   1.800       .  S
S843        H846   1.406       .  S
S844        H845   1.407       .  S
C849        C850   1.409       .  A
C849        C854   1.405       .  A
C850        C851   1.385       .  A
C850        H859   1.084       .  S
C851        C852   1.405       .  A
C851        S855   1.801       .  S
C852        C853   1.407       .  A
C853        C854   1.388       .  A
C853        H860   1.084       .  S
C854        S856   1.801       .  S
S855        H858   1.408       .  S
S856        H857   1.408       .  S
C861        C862   1.394       .  A
C861        C866   1.415       .  A
C862        C863   1.392       .  A
C862        H871   1.084       .  S
C863        C864   1.413       .  A
C863        S867   1.803       .  S
C864        C865   1.392       .  A
C865        C866   1.381       .  A
C865        H872   1.085       .  S
C866        S868   1.809       .  S
S867        H870   1.407       .  S
S868        H869   1.406       .  S
C873        C874   1.405       .  A
C873        C878   1.428       .  A
C874        C875   1.416       .  A
C874        H883   1.083       .  S
C875        C876   1.426       .  A
C875        S879   1.801       .  S
C876        C877   1.401       .  A
C877        C878   1.400       .  A
C877        H884   1.082   1_565  S
C878        S880   1.815   1_565  S
S879        H882   1.408       .  S
S880        H881   1.407       .  S
C885        C886   1.406       .  A
C885        C890   1.427   1_565  A
C886        C887   1.415       .  A
C886        H895   1.083       .  S
C887        C888   1.427       .  A
C887        S891   1.803       .  S
C888        C889   1.404   1_565  A
C889        C890   1.413       .  A
C889        H896   1.082       .  S
C890        S892   1.810       .  S
S891        H894   1.408       .  S
S892        H893   1.407       .  S
C897        C898   1.403       .  A
C897        C902   1.416       .  A
C898        C899   1.401       .  A
C898        H907   1.079       .  S
C899        C900   1.415       .  A
C899        S903   1.802       .  S
C900        C901   1.404       .  A
C901        C902   1.405       .  A
C901        H908   1.080       .  S
C902        S904   1.803   1_545  S
S903        H906   1.403       .  S
S904        H905   1.408       .  S
C909        C910   1.396       .  A
C909        C914   1.407       .  A
C910        C911   1.394       .  A
C910        H919   1.084       .  S
C911        C912   1.423       .  A
C911        S915   1.802       .  S
C912        C913   1.406       .  A
C913        C914   1.401       .  A
C913        H920   1.082       .  S
C914        S916   1.803       .  S
S915        H918   1.408       .  S
S916        H917   1.407       .  S
C921        C922   1.403       .  A
C921        C926   1.411       .  A
C922        C923   1.402       .  A
C922        H931   1.084       .  S
C923        C924   1.414       .  A
C923        S927   1.803       .  S
C924        C925   1.407       .  A
C925        C926   1.408       .  A
C925        H932   1.084       .  S
C926        S928   1.802       .  S
S927        H930   1.407       .  S
S928        H929   1.406       .  S
C933        C934   1.409       .  A
C933        C938   1.418       .  A
C934        C935   1.412       .  A
C934        H943   1.084       .  S
C935        C936   1.422       .  A
C935        S939   1.803       .  S
C936        C937   1.412       .  A
C937        C938   1.414       .  A
C937        H944   1.083       .  S
C938        S940   1.800       .  S
S939        H942   1.407       .  S
S940        H941   1.405       .  S
C945        C946   1.403       .  A
C945        C950   1.409       .  A
C946        C947   1.393       .  A
C946        H955   1.084   1_655  S
C947        C948   1.405       .  A
C947        S951   1.808   1_655  S
C948        C949   1.402       .  A
C949        C950   1.396       .  A
C949        H956   1.084       .  S
C950        S952   1.800       .  S
S951        H954   1.407       .  S
S952        H953   1.406       .  S
C957        C958   1.404       .  A
C957        C962   1.412       .  A
C958        C959   1.398       .  A
C958        H967   1.083       .  S
C959        C960   1.413       .  A
C959        S963   1.799       .  S
C960        C961   1.403       .  A
C961        C962   1.395       .  A
C961        H968   1.084   1_455  S
C962        S964   1.803   1_455  S
S963        H966   1.406       .  S
S964        H965   1.408   1_655  S
C969        C970   1.408       .  A
C969        C974   1.414       .  A
C970        C971   1.410       .  A
C970        H979   1.084       .  S
C971        C972   1.417       .  A
C971        S975   1.803       .  S
C972        C973   1.406       .  A
C973        C974   1.404       .  A
C973        H980   1.083       .  S
C974        S976   1.810       .  S
S975        H978   1.407       .  S
S976        H977   1.407       .  S
C981        C982   1.402       .  A
C981        C986   1.408       .  A
C982        C983   1.391       .  A
C982        H991   1.084       .  S
C983        C984   1.410       .  A
C983        S987   1.801       .  S
C984        C985   1.404       .  A
C985        C986   1.386       .  A
C985        H992   1.084       .  S
C986        S988   1.805       .  S
S987        H990   1.403       .  S
S988        H989   1.400       .  S
