geometry optimzed in LAMMPS
_audit_creation_date              2020-12-01 
_audit_creation_method            'lammps2cif' 
_symmetry_space_group_name_H-M    'P1' 
_symmetry_Int_Tables_number       1 
_symmetry_cell_setting            triclinic 
loop_ 
_symmetry_equiv_pos_as_xyz 
  x,y,z 
_cell_length_a                    36.94387096 
_cell_length_b                    36.925360637232046 
_cell_length_c                    51.216274764511205 
_cell_angle_alpha                 90.04193192440371 
_cell_angle_beta                  89.77010191645945 
_cell_angle_gamma                 120.20820478701704 
loop_ 
_atom_site_label 
_atom_site_type_symbol 
_atom_site_fract_x 
_atom_site_fract_y 
_atom_site_fract_z 
_atom_site_charge 
Zn1        Zn  0.51206171  0.07826154  0.47452317     1.49700
Zn2        Zn  0.53616867  0.02993156  0.01574835     1.49400
Zn3        Zn  0.60195431  0.09482024  0.47639569     1.49100
Zn4        Zn  0.57480431  0.12726117  0.02080729     1.49500
O5          O  0.55411446  0.08140303  0.99713647    -1.84000
O6          O  0.45755356  0.02617869  0.48175380    -0.74700
O7          O  0.59226450  0.02835201  0.02333393    -0.74500
O8          O  0.58636498  0.07148187  0.44049640    -0.74000
O9          O  0.47894698  0.98368500  0.99754508    -0.74700
O10         O  0.52620104  0.07120043  0.43756968    -0.74300
O11         O  0.63590890  0.07670020  0.49565930    -0.74900
O12         O  0.63745067  0.16652143  0.01653391    -0.74300
O13         O  0.52054096  0.03741345  0.05232915    -0.75000
O14         O  0.64124667  0.15661665  0.47449252    -0.74400
O15         O  0.55784028  0.10670266  0.05736406    -0.74900
O16         O  0.54865826  0.16081135  0.01200037    -0.74800
O17         O  0.50739563  0.13030939  0.47801327    -0.74600
C18         C  0.45019620  0.98934570  0.48704700     0.77200
C19         C  0.62984566  0.05339432  0.01508818     0.77700
C20         C  0.55530185  0.06693153  0.42725290     0.76700
C21         C  0.65719861  0.17816111  0.99483045     0.77000
C22         C  0.53428144  0.07006321  0.06652959     0.78200
C23         C  0.52429394  0.15989062  0.49465604     0.77200
Zn24       Zn  0.57983857  0.07944857  0.22567494     1.49700
Zn25       Zn  0.50481531  0.02176894  0.26469846     1.49400
Zn26       Zn  0.55792199  0.11886747  0.27364645     1.49100
Zn27       Zn  0.50462259  0.09024860  0.22782583     1.49500
O28         O  0.53779713  0.07562487  0.24825093    -1.84000
O29         O  0.58681304  0.03055446  0.23213297    -0.74700
O30         O  0.52504902  0.02634318  0.30155977    -0.74500
O31         O  0.61828751  0.15583528  0.26780672    -0.74000
O32         O  0.52396288  0.98047157  0.24586265    -0.74700
O33         O  0.63426297  0.13349695  0.23179504    -0.74300
O34         O  0.55055707  0.09442413  0.30925210    -0.74900
O35         O  0.52952363  0.15212157  0.22634536    -0.74300
O36         O  0.44623843  0.02004955  0.27318142    -0.75000
O37         O  0.53451506  0.15788969  0.26911906    -0.74400
O38         O  0.45322642  0.07252681  0.24806559    -0.74900
O39         O  0.49794951  0.06968916  0.19130783    -0.74800
O40         O  0.56032181  0.07434883  0.18822399    -0.74600
C41         C  0.56078004  0.99199768  0.23604096     0.77200
C42         C  0.53970045  0.05755437  0.31699509     0.77700
C43         C  0.64441938  0.16014950  0.25015564     0.76700
C44         C  0.53185908  0.17223097  0.24695910     0.77000
C45         C  0.43533334  0.04721381  0.26687537     0.78200
C46         C  0.52649013  0.06869924  0.17787367     0.77200
Zn47       Zn  0.58507211  0.47338075  0.00773803     1.49700
Zn48       Zn  0.56147354  0.39812093  0.47029022     1.49400
Zn49       Zn  0.52853785  0.38333201  0.02381730     1.49100
Zn50       Zn  0.49343499  0.42285473  0.48065819     1.49500
O51         O  0.54090041  0.42091053  0.49546839    -1.84000
O52         O  0.64040376  0.47591207  0.00161639    -0.74700
O53         O  0.53545896  0.33702893  0.47596051    -0.74500
O54         O  0.54494288  0.41258946  0.05794157    -0.74000
O55         O  0.62293484  0.42323662  0.47409904    -0.74700
O56         O  0.57935589  0.47992735  0.04670650    -0.74300
O57         O  0.54574824  0.34023636  0.01828002    -0.74900
O58         O  0.43774002  0.37333994  0.49966941    -0.74300
O59         O  0.54690891  0.40517839  0.43464805    -0.75000
O60         O  0.46863771  0.34815136  0.02514104    -0.74400
O61         O  0.48912639  0.40838247  0.44153792    -0.74900
O62         O  0.51340112  0.48797331  0.47785939    -0.74800
O63         O  0.58120204  0.51772419  0.98787363    -0.74600
C64         C  0.65003672  0.45336764  0.48779173     0.77200
C65         C  0.53629297  0.31974754  0.99697972     0.77700
C66         C  0.56298958  0.45117331  0.06395037     0.76700
C67         C  0.43589334  0.34526348  0.01549032     0.77000
C68         C  0.51484136  0.40544562  0.42615327     0.78200
C69         C  0.55089667  0.52022105  0.47819889     0.77200
Zn70       Zn  0.52010665  0.39750102  0.22143213     1.49700
Zn71       Zn  0.58141855  0.41751785  0.27035565     1.49400
Zn72       Zn  0.60480642  0.47751521  0.22622804     1.49100
Zn73       Zn  0.53472588  0.46700615  0.26513766     1.49500
O74         O  0.55729270  0.43833609  0.24589025    -1.84000
O75         O  0.51843305  0.34166185  0.22760079    -0.74700
O76         O  0.64466091  0.44791134  0.26738953    -0.74500
O77         O  0.59149735  0.48421856  0.18951451    -0.74000
O78         O  0.56174494  0.35830480  0.26135269    -0.74700
O79         O  0.53857490  0.41905094  0.18440242    -0.74300
O80         O  0.64612412  0.45870641  0.22480970    -0.74900
O81         O  0.58894991  0.52560457  0.27546199    -0.74300
O82         O  0.56109336  0.41754676  0.30681543    -0.75000
O83         O  0.63587285  0.52983977  0.24637764    -0.74400
O84         O  0.51663492  0.44057385  0.30073185    -0.74900
O85         O  0.47710026  0.45183752  0.24598096    -0.74800
O86         O  0.46371237  0.39306849  0.22501798    -0.74600
C87         C  0.53725156  0.33187802  0.24470557     0.77200
C88         C  0.66368958  0.45630177  0.24548585     0.77700
C89         C  0.56536778  0.45472104  0.17499200     0.76700
C90         C  0.62708999  0.54287091  0.26705378     0.77000
C91         C  0.53320613  0.42519289  0.31544698     0.78200
C92         C  0.45200043  0.41846518  0.23283552     0.77200
Zn93       Zn  0.94195944  0.42324671  0.23176306     1.49700
Zn94       Zn  0.90239590  0.47542322  0.25911467     1.49400
Zn95       Zn  0.84931169  0.39863337  0.22263730     1.49100
Zn96       Zn  0.86849686  0.38532835  0.27566804     1.49500
O97         O  0.89322777  0.42221746  0.24709026    -1.84000
O98         O  0.98805528  0.48754930  0.22936562    -0.74700
O99         O  0.85069413  0.47973954  0.25278904    -0.74500
O100        O  0.87075769  0.40631493  0.18671433    -0.74000
O101        O  0.95067150  0.51838850  0.23840434    -0.74700
O102        O  0.93245328  0.41089693  0.19246522    -0.74300
O103        O  0.81480569  0.42500542  0.22680287    -0.74900
O104        O  0.80731161  0.34518365  0.27155477    -0.74300
O105        O  0.91467495  0.48260789  0.29799433    -0.75000
O106        O  0.81194722  0.33768171  0.22925416    -0.74400
O107        O  0.88299306  0.41537598  0.30940361    -0.74900
O108        O  0.89091551  0.34798272  0.27590742    -0.74800
O109        O  0.94677312  0.37266721  0.24971220    -0.74600
C110        C  0.98306100  0.51976920  0.22846163     0.77200
C111        C  0.81833636  0.45637242  0.23921232     0.77700
C112        C  0.90355934  0.40810012  0.17753688     0.76700
C113        C  0.79373922  0.32310984  0.25100924     0.77000
C114        C  0.90302496  0.45403075  0.31528518     0.78200
C115        C  0.92017311  0.34449984  0.26560455     0.77200
Zn116      Zn  0.89530515  0.40303541  0.47157932     1.49700
Zn117      Zn  0.88965832  0.48242082  0.47788804     1.49400
Zn118      Zn  0.85276316  0.41858020  0.02102786     1.49100
Zn119      Zn  0.94994244  0.47037477  0.01586097     1.49500
O120        O  0.89828946  0.44254998  0.49668021    -1.84000
O121        O  0.89736427  0.42553763  0.43535871    -0.74700
O122        O  0.82898295  0.46305762  0.47608269    -0.74500
O123        O  0.81670877  0.35808666  0.01313325    -0.74000
O124        O  0.91052103  0.49080687  0.44103579    -0.74700
O125        O  0.84262322  0.34614041  0.47704235    -0.74300
O126        O  0.81472841  0.44285400  0.01725949    -0.74900
O127        O  0.94108825  0.44376530  0.05162765    -0.74300
O128        O  0.91100186  0.53385306  0.49930620    -0.75000
O129        O  0.87372023  0.42258316  0.05748451    -0.74400
O130        O  0.95491581  0.52878842  0.02679864    -0.74900
O131        O  0.99298446  0.45595169  0.99601228    -0.74800
O132        O  0.94735831  0.39923457  0.47384118    -0.74600
C133        C  0.90658433  0.46135361  0.42622254     0.77200
C134        C  0.80564546  0.45450562  0.99608515     0.77700
C135        C  0.81510475  0.33368401  0.49519849     0.76700
C136        C  0.90892970  0.42980204  0.06635594     0.77000
C137        C  0.93395727  0.54633349  0.01942948     0.78200
C138        C  0.98459588  0.42400987  0.48158357     0.77200
Zn139      Zn  0.60864595  0.79053996  0.18690571     1.49700
Zn140      Zn  0.55173013  0.73082910  0.14003301     1.49400
Zn141      Zn  0.51317244  0.75028428  0.19069892     1.49100
Zn142      Zn  0.55789962  0.81549111  0.14902457     1.49500
O143        O  0.55871753  0.77017118  0.16646691    -1.84000
O144        O  0.64804942  0.77262954  0.16662896    -0.74700
O145        O  0.49693491  0.67654230  0.14606246    -0.74500
O146        O  0.53226423  0.75092118  0.22702031    -0.74000
O147        O  0.60148582  0.72188969  0.14071750    -0.74700
O148        O  0.59545359  0.75937005  0.22109389    -0.74300
O149        O  0.47317513  0.69091729  0.18246184    -0.74900
O150        O  0.49976092  0.80510321  0.14754199    -0.74300
O151        O  0.55115541  0.75515656  0.10465013    -0.75000
O152        O  0.48093032  0.78100174  0.18782234    -0.74400
O153        O  0.57791893  0.82345510  0.11186298    -0.74900
O154        O  0.58414016  0.86502302  0.17192895    -0.74800
O155        O  0.61936833  0.84970930  0.20091277    -0.74600
C156        C  0.63805696  0.74169553  0.15072421     0.77200
C157        C  0.46976930  0.66598396  0.16428270     0.77700
C158        C  0.56423618  0.75062638  0.23580185     0.76700
C159        C  0.47570689  0.79696385  0.16716696     0.77000
C160        C  0.56518928  0.79249627  0.09634002     0.78200
C161        C  0.60362404  0.87220007  0.19340285     0.77200
Zn162      Zn  0.56966435  0.80970743  0.42896536     1.49700
Zn163      Zn  0.53487918  0.71923430  0.44631595     1.49400
Zn164      Zn  0.51625689  0.73168312  0.39296323     1.49100
Zn165      Zn  0.60882214  0.75808895  0.40097426     1.49500
O166        O  0.56033595  0.75640204  0.41727647    -1.84000
O167        O  0.57881569  0.81672317  0.46822176    -0.74700
O168        O  0.47548490  0.67257372  0.44085317    -0.74500
O169        O  0.47981121  0.75571780  0.39731841    -0.74000
O170        O  0.54099959  0.74959403  0.47956120    -0.74700
O171        O  0.51751666  0.81245481  0.42181672    -0.74300
O172        O  0.48276840  0.66987336  0.39844571    -0.74900
O173        O  0.59765472  0.74327084  0.36201900    -0.74300
O174        O  0.56254562  0.68647849  0.44931247    -0.75000
O175        O  0.53691777  0.74079985  0.35719654    -0.74400
O176        O  0.61347726  0.70824124  0.41921234    -0.74900
O177        O  0.65533314  0.82277036  0.39775905    -0.74800
O178        O  0.61936454  0.85414371  0.40966713    -0.74600
C179        C  0.56144192  0.78822612  0.48556055     0.77200
C180        C  0.46543132  0.65171823  0.41974345     0.77700
C181        C  0.48428752  0.78776543  0.40936556     0.76700
C182        C  0.56869539  0.74114935  0.34748347     0.77000
C183        C  0.59017383  0.68229368  0.43721242     0.78200
C184        C  0.65152987  0.85568960  0.39924643     0.77200
Zn185      Zn  0.25844997  0.40198359  0.43633744     1.49700
Zn186      Zn  0.16683292  0.36661685  0.40859709     1.49400
Zn187      Zn  0.20941340  0.44281683  0.45206106     1.49100
Zn188      Zn  0.24112269  0.45456870  0.39601723     1.49500
O189        O  0.21700174  0.41410405  0.42313181    -1.84000
O190        O  0.25196938  0.35280987  0.41610298    -0.74700
O191        O  0.11482319  0.36252214  0.43112087    -0.74500
O192        O  0.22825363  0.43179103  0.48659854    -0.74000
O193        O  0.18455794  0.31998997  0.40378830    -0.74700
O194        O  0.24969522  0.38758906  0.47512817    -0.74300
O195        O  0.14957058  0.41891074  0.45630297    -0.74900
O196        O  0.22618163  0.49843644  0.40138538    -0.74300
O197        O  0.15812797  0.37837683  0.36988229    -0.75000
O198        O  0.22803618  0.50330176  0.44459211    -0.74400
O199        O  0.22085828  0.43249521  0.36061716    -0.74900
O200        O  0.30246823  0.48459568  0.39814762    -0.74800
O201        O  0.31600204  0.45435065  0.43128012    -0.74600
C202        C  0.22064032  0.32214320  0.40504227     0.77200
C203        C  0.11535557  0.38865209  0.44827225     0.77700
C204        C  0.23963791  0.40555569  0.49260035     0.76700
C205        C  0.22600962  0.51706974  0.42215455     0.77000
C206        C  0.18445381  0.40463668  0.35346885     0.78200
C207        C  0.32775739  0.48384371  0.41452766     0.77200
Zn208      Zn  0.25028282  0.44398003  0.20077361     1.49700
Zn209      Zn  0.21191051  0.36423131  0.16006282     1.49400
Zn210      Zn  0.16069621  0.40617271  0.18562992     1.49100
Zn211      Zn  0.23158495  0.45360901  0.14429803     1.49500
O212        O  0.21311660  0.41464166  0.17254834    -1.84000
O213        O  0.28495848  0.41848929  0.20576125    -0.74700
O214        O  0.14647237  0.31938748  0.15685545    -0.74500
O215        O  0.15409348  0.39424193  0.22494629    -0.74000
O216        O  0.26024117  0.36019959  0.18203390    -0.74700
O217        O  0.22060175  0.43743607  0.23517385    -0.74300
O218        O  0.11633011  0.35756419  0.16607124    -0.74900
O219        O  0.20313019  0.48686026  0.14524332    -0.74300
O220        O  0.22901002  0.37060997  0.12097816    -0.75000
O221        O  0.15918546  0.45973001  0.17888963    -0.74400
O222        O  0.22707339  0.42775051  0.10971032    -0.74900
O223        O  0.29166399  0.49565067  0.14882918    -0.74800
O224        O  0.29258560  0.50374038  0.19173050    -0.74600
C225        C  0.28748423  0.38714094  0.19818118     0.77200
C226        C  0.11424485  0.32453567  0.15677357     0.77700
C227        C  0.18261473  0.41325024  0.24197722     0.76700
C228        C  0.17791909  0.48821230  0.16161476     0.77000
C229        C  0.23043543  0.39621816  0.10365967     0.78200
C230        C  0.30947529  0.51614528  0.16931182     0.77200
Zn231      Zn  0.23446632  0.73660809  0.14061804     1.49700
Zn232      Zn  0.25280827  0.81138053  0.17862598     1.49400
Zn233      Zn  0.16345449  0.75711494  0.14999612     1.49100
Zn234      Zn  0.19968589  0.71905206  0.19296394     1.49500
O235        O  0.21165515  0.75765344  0.16532741    -1.84000
O236        O  0.29563691  0.76486145  0.14627756    -0.74700
O237        O  0.24708979  0.85450612  0.15763800    -0.74500
O238        O  0.16119930  0.74338930  0.11144909    -0.74000
O239        O  0.31010073  0.81796037  0.17314206    -0.74700
O240        O  0.22168128  0.74522711  0.10472686    -0.74300
O241        O  0.17966948  0.82043965  0.14631496    -0.74900
O242        O  0.13995452  0.68242754  0.19303274    -0.74300
O243        O  0.24438780  0.81469719  0.21796587    -0.75000
O244        O  0.10805753  0.70656679  0.16748651    -0.74400
O245        O  0.21436812  0.74669251  0.22729158    -0.74900
O246        O  0.21843136  0.67713965  0.18770263    -0.74800
O247        O  0.20915068  0.67472644  0.14529453    -0.74600
C248        C  0.32150806  0.79636329  0.15962107     0.77200
C249        C  0.21606309  0.85403385  0.14635458     0.77700
C250        C  0.18872929  0.74371026  0.09623182     0.76700
C251        C  0.10698504  0.67847139  0.18299593     0.77000
C252        C  0.22945318  0.78452570  0.23440022     0.78200
C253        C  0.20872010  0.65661506  0.16646726     0.77200
Zn254      Zn  0.26874835  0.79931682  0.39698227     1.49700
Zn255      Zn  0.18308143  0.72230976  0.39203472     1.49400
Zn256      Zn  0.24324198  0.74112301  0.44077938     1.49100
Zn257      Zn  0.19986113  0.79331452  0.43514681     1.49500
O258        O  0.22032321  0.76254246  0.41635008    -1.84000
O259        O  0.25645592  0.80892824  0.36065684    -0.74700
O260        O  0.18371757  0.66741970  0.39683270    -0.74500
O261        O  0.30565929  0.77029282  0.43787468    -0.74000
O262        O  0.20145828  0.74523352  0.35515332    -0.74700
O263        O  0.30684937  0.77645934  0.39510957    -0.74300
O264        O  0.22392252  0.68253039  0.43220024    -0.74900
O265        O  0.18223682  0.76826930  0.47117909    -0.74300
O266        O  0.12648969  0.71730635  0.39715979    -0.75000
O267        O  0.22448462  0.74240347  0.47678623    -0.74400
O268        O  0.14284687  0.77865315  0.41589060    -0.74900
O269        O  0.25468372  0.85204151  0.44466413    -0.74800
O270        O  0.30161545  0.84962806  0.41842964    -0.74600
C271        C  0.22934660  0.78062435  0.34591091     0.77200
C272        C  0.20205305  0.65758171  0.41421064     0.77700
C273        C  0.32468488  0.77613900  0.41620246     0.76700
C274        C  0.19792583  0.75158887  0.48559120     0.77000
C275        C  0.11646184  0.74450144  0.40389971     0.78200
C276        C  0.29308841  0.86539595  0.43786953     0.77200
Zn277      Zn  0.21223271  0.13470451  0.31153351     1.49700
Zn278      Zn  0.28195937  0.13779508  0.34787321     1.49400
Zn279      Zn  0.18545597  0.08298830  0.35752459     1.49100
Zn280      Zn  0.22505643  0.06058655  0.30899408     1.49500
O281        O  0.22845026  0.10274150  0.33183281    -1.84000
O282        O  0.23159173  0.18769217  0.32947677    -0.74700
O283        O  0.27853597  0.11795376  0.38524559    -0.74500
O284        O  0.15193516  0.11258170  0.35570588    -0.74000
O285        O  0.28463461  0.19675595  0.35419099    -0.74700
O286        O  0.15083797  0.11084119  0.31285910    -0.74300
O287        O  0.20993260  0.08799785  0.39246826    -0.74900
O288        O  0.17294378  0.00436680  0.31797525    -0.74300
O289        O  0.32434022  0.12287914  0.32776066    -0.75000
O290        O  0.14671143  0.02270543  0.35111375    -0.74400
O291        O  0.27870569  0.05926822  0.31208986    -0.74900
O292        O  0.22418076  0.07815278  0.27130363    -0.74800
O293        O  0.23056365  0.14087561  0.27470854    -0.74600
C294        C  0.25832431  0.20808627  0.34690208     0.77200
C295        C  0.24690228  0.10051909  0.40049925     0.77700
C296        C  0.13687197  0.11638816  0.33423836     0.76700
C297        C  0.14471117  0.99505952  0.33539579     0.77000
C298        C  0.31635640  0.08784513  0.31685617     0.78200
C299        C  0.22965473  0.11200078  0.26080628     0.77200
Zn300      Zn  0.19247523  0.04937898  0.10545056     1.49700
Zn301      Zn  0.18179425  0.07006248  0.05255154     1.49400
Zn302      Zn  0.23226872  0.14100192  0.09373390     1.49100
Zn303      Zn  0.27269734  0.09121138  0.06600795     1.49500
O304        O  0.22243743  0.08927807  0.07915429    -1.84000
O305        O  0.13225821  0.00858303  0.09782523    -0.74700
O306        O  0.14712127  0.09641035  0.05730554    -0.74500
O307        O  0.24349199  0.14254768  0.13289453    -0.74000
O308        O  0.14311396  0.00809426  0.05547626    -0.74700
O309        O  0.20226016  0.07444798  0.14050581    -0.74300
O310        O  0.17962905  0.14393398  0.08857791    -0.74900
O311        O  0.31869253  0.15584740  0.06440513    -0.74300
O312        O  0.20819601  0.08181758  0.01792568    -0.75000
O313        O  0.28097762  0.18620642  0.07382175    -0.74400
O314        O  0.26648445  0.08041724  0.02677233    -0.74900
O315        O  0.27595751  0.03972765  0.08407621    -0.74800
O316        O  0.21588015  0.01335978  0.10610002    -0.74600
C317        C  0.12196672  0.99008338  0.07584998     0.77200
C318        C  0.14867298  0.12350623  0.07329740     0.77700
C319        C  0.22646198  0.11145586  0.14859640     0.76700
C320        C  0.31350660  0.18797671  0.06372435     0.77000
C321        C  0.24090001  0.08151113  0.01058678     0.78200
C322        C  0.24662838  0.01033621  0.09805927     0.77200
Zn323      Zn  0.86412993  0.68764322  0.35458942     1.49700
Zn324      Zn  0.85311687  0.75002572  0.31458649     1.49400
Zn325      Zn  0.90848293  0.78360685  0.36578501     1.49100
Zn326      Zn  0.93614826  0.75490181  0.31887546     1.49500
O327        O  0.88744923  0.74228732  0.33880687    -1.84000
O328        O  0.80906697  0.64824195  0.33136019    -0.74700
O329        O  0.85103928  0.80287325  0.32309539    -0.74500
O330        O  0.88423612  0.75707249  0.40089042    -0.74000
O331        O  0.79743096  0.69719484  0.31374673    -0.74700
O332        O  0.84311103  0.68953931  0.39122821    -0.74300
O333        O  0.89058379  0.82500133  0.35854729    -0.74900
O334        O  0.97650542  0.81612771  0.32092027    -0.74300
O335        O  0.87604432  0.75554262  0.27790549    -0.75000
O336        O  0.97183546  0.81911563  0.36394544    -0.74400
O337        O  0.92566019  0.73874606  0.28099083    -0.74900
O338        O  0.96647973  0.73280464  0.33788231    -0.74800
O339        O  0.91879175  0.68320981  0.36386519    -0.74600
C340        C  0.78592397  0.65880458  0.31802803     0.77200
C341        C  0.86929884  0.83010420  0.34100769     0.77700
C342        C  0.85667080  0.71980864  0.40746298     0.76700
C343        C  0.99152141  0.83449948  0.34254815     0.77000
C344        C  0.90209195  0.74694889  0.26723151     0.78200
C345        C  0.95733288  0.70781859  0.35698662     0.77200
Zn346      Zn  0.88620469  0.78175369  0.05704060     1.49700
Zn347      Zn  0.82348703  0.68874010  0.07500972     1.49400
Zn348      Zn  0.91723587  0.74066849  0.09903786     1.49100
Zn349      Zn  0.85860623  0.77285974  0.11159400     1.49500
O350        O  0.87001381  0.74336512  0.08544881    -1.84000
O351        O  0.86877258  0.75177420  0.02346106    -0.74700
O352        O  0.84855396  0.64719439  0.07459529    -0.74500
O353        O  0.96955126  0.79524375  0.08981861    -0.74000
O354        O  0.81372229  0.69050439  0.03513348    -0.74700
O355        O  0.94755063  0.82161492  0.05886810    -0.74300
O356        O  0.91692134  0.69171866  0.08135829    -0.74900
O357        O  0.88374965  0.77299354  0.14541475    -0.74300
O358        O  0.76880734  0.68066802  0.09715666    -0.75000
O359        O  0.91531524  0.73629345  0.13921525    -0.74400
O360        O  0.79916200  0.74183232  0.11805579    -0.74900
O361        O  0.86948602  0.83009117  0.10158379    -0.74800
O362        O  0.86006132  0.81785705  0.05931020    -0.74600
C363        C  0.83718901  0.71660985  0.01759009     0.77200
C364        C  0.88729738  0.65631132  0.07353215     0.77700
C365        C  0.97627928  0.82447560  0.07385545     0.76700
C366        C  0.90276651  0.75521835  0.15445157     0.77000
C367        C  0.76665457  0.70753872  0.11251449     0.78200
C368        C  0.86192683  0.83938127  0.07913184     0.77200
Zn369      Zn  0.86864169  0.05567948  0.36529539     1.49700
Zn370      Zn  0.83373321  0.08938117  0.31806636     1.49400
Zn371      Zn  0.92160894  0.14647160  0.34897239     1.49100
Zn372      Zn  0.90678412  0.07168433  0.31193689     1.49500
O373        O  0.88135329  0.09171372  0.33576012    -1.84000
O374        O  0.80839030  0.01862648  0.36604822    -0.74700
O375        O  0.85133515  0.15334205  0.31189628    -0.74500
O376        O  0.91087006  0.15343683  0.38746061    -0.74000
O377        O  0.77850017  0.04078644  0.33724185    -0.74700
O378        O  0.88258184  0.08662379  0.39897243    -0.74300
O379        O  0.91743292  0.18839975  0.32598724    -0.74900
O380        O  0.96788114  0.10340057  0.31732795    -0.74300
O381        O  0.83044779  0.06987681  0.27999912    -0.75000
O382        O  0.97922130  0.15265252  0.34668353    -0.74400
O383        O  0.89194316  0.07407077  0.27501886    -0.74900
O384        O  0.88834538  0.01172566  0.31955653    -0.74800
O385        O  0.88898377  0.01461658  0.36257416    -0.74600
C386        C  0.77610623  0.01456808  0.35486998     0.77200
C387        C  0.88744548  0.18736842  0.31301517     0.77700
C388        C  0.89637871  0.12481835  0.40489592     0.76700
C389        C  0.99196153  0.13267202  0.33268839     0.77000
C390        C  0.85804363  0.06903482  0.26536257     0.78200
C391        C  0.88684999  0.99519223  0.34160296     0.77200
Zn392      Zn  0.92342540  0.10696206  0.11044831     1.49700
Zn393      Zn  0.88299261  0.14701486  0.07181554     1.49400
Zn394      Zn  0.90356030  0.07880830  0.05618986     1.49100
Zn395      Zn  0.83130093  0.05330208  0.09712866     1.49500
O396        O  0.88379698  0.09775842  0.08409442    -1.84000
O397        O  0.95820457  0.16718025  0.11523446    -0.74700
O398        O  0.89763260  0.15609967  0.03254788    -0.74500
O399        O  0.96578105  0.10576083  0.05842563    -0.74000
O400        O  0.93161733  0.19989608  0.09245949    -0.74700
O401        O  0.96580509  0.09119480  0.10006643    -0.74300
O402        O  0.88962687  0.09395871  0.02220251    -0.74900
O403        O  0.82805114  0.99799000  0.08832614    -0.74300
O404        O  0.81850164  0.12831141  0.07009150    -0.75000
O405        O  0.88006531  0.01739938  0.05978088    -0.74400
O406        O  0.78635767  0.05974696  0.07908489    -0.74900
O407        O  0.82844917  0.05527779  0.13716882    -0.74800
O408        O  0.89644651  0.08239747  0.14448055    -0.74600
C409        C  0.95989449  0.20057797  0.10759581     0.77200
C410        C  0.89293795  0.12868356  0.01560432     0.77700
C411        C  0.98473093  0.10285342  0.07820633     0.76700
C412        C  0.85093584  0.98942351  0.07384701     0.77000
C413        C  0.78545724  0.09141722  0.06976991     0.78200
C414        C  0.85892138  0.06511656  0.15278501     0.77200
C415        C  0.92553958  0.16630121  0.47418466    -0.09100
C416        C  0.89020492  0.13545491  0.48763328     0.07100
C417        C  0.85503685  0.10637501  0.47339478    -0.02800
C418        C  0.85689095  0.10590820  0.44623502    -0.07300
C419        C  0.89347535  0.13413047  0.43266754     0.06200
C420        C  0.92739663  0.16590454  0.44675043    -0.02300
Br421      Br  0.97851516  0.20599773  0.42991508    -0.02000
H422        H  0.95282348  0.18871929  0.48502578     0.10200
H423        H  0.83020607  0.08185547  0.43568409     0.08200
Br424      Br  0.80475828  0.06524501  0.99039383    -0.02400
C425        C  0.82401047  0.06697107  0.19435753    -0.09100
C426        C  0.85214776  0.05810956  0.18128936     0.07100
C427        C  0.87763450  0.04763860  0.19615695    -0.02800
C428        C  0.87738320  0.04982125  0.22331500    -0.07300
C429        C  0.85185390  0.06202825  0.23661511     0.06200
C430        C  0.82350877  0.06889432  0.22179071    -0.02300
Br431      Br  0.78517623  0.08351828  0.23719341    -0.02000
H432        H  0.80392371  0.07465823  0.18319550     0.10200
H433        H  0.89817639  0.04261659  0.23407217     0.08200
Br434      Br  0.91364562  0.02989693  0.18058543    -0.02400
C435        C  0.83802032  0.88609351  0.09753030    -0.09100
C436        C  0.85489448  0.87525018  0.07631850     0.07100
C437        C  0.86565031  0.89965442  0.05333609    -0.02800
C438        C  0.86113760  0.93497916  0.05246810    -0.07300
C439        C  0.84621789  0.94711181  0.07412339     0.06200
C440        C  0.83347037  0.92147016  0.09666524    -0.02300
Br441      Br  0.81307839  0.93433254  0.12786158    -0.02000
H442        H  0.82907596  0.86737869  0.11519899     0.10200
H443        H  0.87114025  0.95418215  0.03500119     0.08200
Br444      Br  0.89053305  0.88940291  0.02327092    -0.02400
C445        C  0.88121084  0.89413866  0.36433195    -0.09100
C446        C  0.86853567  0.86996919  0.34134112     0.07100
C447        C  0.86079549  0.88713641  0.31884956    -0.02800
C448        C  0.86688958  0.92768263  0.31965991    -0.07300
C449        C  0.88090921  0.95232606  0.34240578     0.06200
C450        C  0.88766600  0.93479230  0.36507803    -0.02300
Br451      Br  0.90807959  0.96463715  0.39742684    -0.02000
H452        H  0.88745897  0.88182824  0.38186334     0.10200
H453        H  0.86089465  0.94012028  0.30209781     0.08200
Br454      Br  0.84444696  0.85884296  0.28578467    -0.02400
C455        C  0.82445112  0.73689858  0.47440729    -0.09100
C456        C  0.82907862  0.70776133  0.48944438     0.07100
C457        C  0.83591052  0.67788115  0.47667600    -0.02800
C458        C  0.84181842  0.68009455  0.44945077    -0.07300
C459        C  0.84115682  0.71195866  0.43477788     0.06200
C460        C  0.83007125  0.73898584  0.44733553    -0.02300
Br461      Br  0.82309284  0.77996321  0.42847111    -0.02000
H462        H  0.81887875  0.75984811  0.48397802     0.10200
H463        H  0.84984034  0.65876496  0.44003873     0.08200
Br464      Br  0.84225918  0.63684785  0.49587711    -0.02400
C465        C  0.90332521  0.78165246  0.22612948    -0.09100
C466        C  0.90598995  0.74930355  0.23845001     0.07100
C467        C  0.91157448  0.72075859  0.22302202    -0.02800
C468        C  0.91246773  0.72411104  0.19562696    -0.07300
C469        C  0.90807969  0.75574585  0.18325977     0.06200
C470        C  0.90476901  0.78551399  0.19907686    -0.02300
Br471      Br  0.90273914  0.83323912  0.18577699    -0.02000
H472        H  0.90017347  0.80447764  0.23774898     0.10200
H473        H  0.91491158  0.70091265  0.18399986     0.08200
Br474      Br  0.91461743  0.67480753  0.23809055    -0.02400
C475        C  0.09172991  0.12848499  0.05199252    -0.09100
C476        C  0.11157040  0.12801047  0.07512570     0.07100
C477        C  0.09106398  0.12293525  0.09918108    -0.02800
C478        C  0.05031110  0.11593556  0.09958409    -0.07300
C479        C  0.02910843  0.11369831  0.07632185     0.06200
C480        C  0.05104629  0.12183970  0.05229235    -0.02300
Br481      Br  0.02785469  0.12254247  0.01886705    -0.02000
H482        H  0.10740128  0.13225104  0.03341022     0.10200
H483        H  0.03472262  0.11083196  0.11830536     0.08200
Br484      Br  0.11483857  0.11993457  0.13186182    -0.02400
C485        C  0.02675730  0.89080469  0.05176090    -0.09100
C486        C  0.01706618  0.86420717  0.07353291     0.07100
C487        C  0.04340813  0.87916805  0.09566245    -0.02800
C488        C  0.07770811  0.91997299  0.09568843    -0.07300
C489        C  0.08621547  0.94687689  0.07429703     0.06200
C490        C  0.06052684  0.93179998  0.05204629    -0.02300
Br491      Br  0.06686139  0.96661921  0.02250824    -0.02000
H492        H  0.00678366  0.88033413  0.03471365     0.10200
H493        H  0.09742530  0.93105373  0.11284311     0.08200
Br494      Br  0.03265385  0.84788962  0.12757748    -0.02400
C495        C  0.06184635  0.88045511  0.32299436    -0.09100
C496        C  0.03216570  0.87409319  0.34240176     0.07100
C497        C  0.04107336  0.90662752  0.36013859    -0.02800
C498        C  0.07845934  0.94468380  0.35781886    -0.07300
C499        C  0.10777839  0.95197863  0.33782840     0.06200
C500        C  0.09938184  0.91873875  0.32055636    -0.02300
Br501      Br  0.13649498  0.92280764  0.29285899    -0.02000
H502        H  0.05557400  0.85553992  0.30935064     0.10200
H503        H  0.08377860  0.96924504  0.37149570     0.08200
Br504      Br  0.00215377  0.90313732  0.38645567    -0.02400
C505        C  0.28070075  0.11916101  0.47129897    -0.09100
C506        C  0.24819529  0.08253661  0.48259544     0.07100
C507        C  0.21849132  0.05066198  0.46655881    -0.02800
C508        C  0.22082497  0.05613687  0.43961792    -0.07300
C509        C  0.25176638  0.09367131  0.42822429     0.06200
C510        C  0.28246951  0.12521383  0.44421884    -0.02300
Br511      Br  0.32329827  0.17917579  0.43080036    -0.02000
H512        H  0.30266215  0.14443209  0.48367000     0.10200
H513        H  0.19694086  0.03172297  0.42757216     0.08200
Br514      Br  0.17232919  0.00036449  0.48071207    -0.02400
C515        C  0.24112926  0.08821623  0.21798810    -0.09100
C516        C  0.23444635  0.11704541  0.23199150     0.07100
C517        C  0.23090865  0.14826838  0.21786538    -0.02800
C518        C  0.23098972  0.14777767  0.19047761    -0.07300
C519        C  0.23457861  0.11687066  0.17683504     0.06200
C520        C  0.24136542  0.08797363  0.19082107    -0.02300
Br521      Br  0.25145777  0.04734425  0.17388287    -0.02000
H522        H  0.24546518  0.06497953  0.22817139     0.10200
H523        H  0.22610594  0.17030878  0.17983672     0.08200
Br524      Br  0.22354079  0.19119689  0.23398024    -0.02400
C525        C  0.08327328  0.12604276  0.35784415    -0.09100
C526        C  0.10362963  0.12763259  0.33420566     0.07100
C527        C  0.09127044  0.13959886  0.31111453    -0.02800
C528        C  0.05701393  0.14569334  0.31174222    -0.07300
C529        C  0.03478488  0.14062245  0.33488429     0.06200
C530        C  0.04899043  0.13232657  0.35832035    -0.02300
Br531      Br  0.01951131  0.12390090  0.39077191    -0.02000
H532        H  0.09261722  0.11782335  0.37588252     0.10200
H533        H  0.04605180  0.15204091  0.29366036     0.08200
Br534      Br  0.11791173  0.14711954  0.27762002    -0.02400
C535        C  0.04037043  0.69317619  0.39355061    -0.09100
C536        C  0.07328016  0.73538285  0.39616632     0.07100
C537        C  0.06521750  0.76709237  0.38800251    -0.02800
C538        C  0.02656034  0.75645965  0.37668249    -0.07300
C539        C  0.99446775  0.71444808  0.37282179     0.06200
C540        C  0.00134092  0.68262867  0.38222120    -0.02300
Br541      Br  0.96002872  0.62470619  0.37807134    -0.02000
H542        H  0.04547398  0.66800486  0.39960876     0.10200
H543        H  0.02211501  0.78173778  0.36992556     0.08200
Br544      Br  0.10690370  0.82555585  0.38893552    -0.02400
C545        C  0.26578384  0.92799601  0.13039971    -0.09100
C546        C  0.22420962  0.89338020  0.13209371     0.07100
C547        C  0.19269836  0.89698662  0.11878456    -0.02800
C548        C  0.20269865  0.93402590  0.10543874    -0.07300
C549        C  0.24345720  0.96947324  0.10531748     0.06200
C550        C  0.27544062  0.96561503  0.11737921    -0.02300
Br551      Br  0.33195152  0.01143026  0.11798600    -0.02000
H552        H  0.29115348  0.92630997  0.13970467     0.10200
H553        H  0.17739064  0.93599427  0.09618136     0.08200
Br554      Br  0.13466466  0.85404490  0.11860492    -0.02400
C555        C  0.26659720  0.81478484  0.27598339    -0.09100
C556        C  0.22878078  0.79194384  0.26251627     0.07100
C557        C  0.19115219  0.76920347  0.27668994    -0.02800
C558        C  0.19197961  0.76770377  0.30387065    -0.07300
C559        C  0.22999643  0.78825204  0.31748866     0.06200
C560        C  0.26763357  0.81286471  0.30329304    -0.02300
Br561      Br  0.32191770  0.84004421  0.31935351    -0.02000
H562        H  0.29574144  0.83150715  0.26516309     0.10200
H563        H  0.16276786  0.74917519  0.31436062     0.08200
Br564      Br  0.13785155  0.73804090  0.25965131    -0.02400
C565        C  0.18563439  0.77675920  0.02722368    -0.09100
C566        C  0.18687052  0.74469371  0.01329667     0.07100
C567        C  0.18369032  0.71000000  0.02690420    -0.02800
C568        C  0.18181851  0.70913400  0.05409481    -0.07300
C569        C  0.18301291  0.74234070  0.06799330     0.06200
C570        C  0.18434319  0.77607633  0.05445084    -0.02300
Br571      Br  0.19054939  0.82453509  0.07211277    -0.02000
H572        H  0.18888698  0.80395672  0.01702698     0.10200
H573        H  0.18089507  0.68312119  0.06449349     0.08200
Br574      Br  0.18479057  0.66445569  0.51001720    -0.02400
C575        C  0.19003103  0.59175344  0.14151582    -0.09100
C576        C  0.19604254  0.61149146  0.16594480     0.07100
C577        C  0.18823354  0.58702274  0.18882386    -0.02800
C578        C  0.17788473  0.54511615  0.18677245    -0.07300
C579        C  0.17536461  0.52675161  0.16238681     0.06200
C580        C  0.17991406  0.54998604  0.13958239    -0.02300
Br581      Br  0.17316239  0.52648516  0.10523616    -0.02000
H582        H  0.19419807  0.60908048  0.12362706     0.10200
H583        H  0.17455095  0.52762693  0.20447831     0.08200
Br584      Br  0.19192702  0.60801097  0.22364432    -0.02400
C585        C  0.07463616  0.27327613  0.12102314    -0.09100
C586        C  0.07369819  0.29333743  0.14410035     0.07100
C587        C  0.03419098  0.28688556  0.15271887    -0.02800
C588        C  0.99720963  0.25997139  0.13894854    -0.07300
C589        C  0.99827272  0.23946309  0.11615265     0.06200
C590        C  0.03774733  0.24689497  0.10718673    -0.02300
Br591      Br  0.04254420  0.21975875  0.07647705    -0.02000
H592        H  0.10430680  0.27839994  0.11349991     0.10200
H593        H  0.96723845  0.25314985  0.14696080     0.08200
Br594      Br  0.02776590  0.31099571  0.18441149    -0.02400
C595        C  0.26702678  0.25269270  0.38650447    -0.09100
C596        C  0.25339229  0.24165978  0.36057075     0.07100
C597        C  0.22743519  0.25655559  0.35013954    -0.02800
C598        C  0.21512410  0.28006982  0.36554549    -0.07300
C599        C  0.22857669  0.29080797  0.39136275     0.06200
C600        C  0.25524303  0.27709361  0.40169523    -0.02300
Br601      Br  0.27459360  0.28865586  0.43709312    -0.02000
H602        H  0.28570230  0.24101168  0.39542712     0.10200
H603        H  0.19606744  0.29151141  0.35684396     0.08200
Br604      Br  0.20789166  0.24761423  0.31462622    -0.02400
C605        C  0.20357580  0.36074341  0.06088817    -0.09100
C606        C  0.23696779  0.39096423  0.07578826     0.07100
C607        C  0.27327410  0.42176522  0.06291144    -0.02800
C608        C  0.27479150  0.42375966  0.03562013    -0.07300
C609        C  0.24038066  0.39544593  0.02073694     0.06200
C610        C  0.20501197  0.36291744  0.03348086    -0.02300
Br611      Br  0.15728802  0.32378303  0.51392673    -0.02000
H612        H  0.17519981  0.33735932  0.07053593     0.10200
H613        H  0.30201487  0.44899042  0.02603689     0.08200
Br614      Br  0.32042939  0.46371448  0.08196052    -0.02400
C615        C  0.15636638  0.36747760  0.31066097    -0.09100
C616        C  0.17384214  0.40450828  0.32549436     0.07100
C617        C  0.18665708  0.44286423  0.31251155    -0.02800
C618        C  0.18673858  0.44446463  0.28527056    -0.07300
C619        C  0.17275118  0.40814250  0.27028495     0.06200
C620        C  0.15540504  0.36904202  0.28317298    -0.02300
Br621      Br  0.13395037  0.31760878  0.26410985    -0.02000
H622        H  0.14587948  0.33768416  0.32027796     0.10200
H623        H  0.19908585  0.47457902  0.27567350     0.08200
Br624      Br  0.20472829  0.49440453  0.33104149    -0.02400
C625        C  0.23099773  0.61562164  0.39692196    -0.09100
C626        C  0.20164418  0.61786111  0.41322098     0.07100
C627        C  0.18150019  0.58764174  0.43291678    -0.02800
C628        C  0.19083206  0.55567916  0.43608814    -0.07300
C629        C  0.22038299  0.55353086  0.41989343     0.06200
C630        C  0.24065395  0.58387478  0.40016424    -0.02300
Br631      Br  0.28462267  0.58587837  0.37891545    -0.02000
H632        H  0.24828875  0.64009332  0.38265365     0.10200
H633        H  0.17453534  0.53211080  0.45102000     0.08200
Br634      Br  0.14134607  0.58912633  0.45601175    -0.02400
C635        C  0.38623771  0.78701448  0.39049646    -0.09100
C636        C  0.36774592  0.78329711  0.41518729     0.07100
C637        C  0.39107142  0.78663264  0.43788490    -0.02800
C638        C  0.43119949  0.79237675  0.43532819    -0.07300
C639        C  0.44814857  0.79352159  0.41069760     0.06200
C640        C  0.42584092  0.79154491  0.38813315    -0.02300
Br641      Br  0.44786906  0.79408571  0.35371659    -0.02000
H642        H  0.36946254  0.78517388  0.37278884     0.10200
H643        H  0.44812813  0.79301153  0.45272849     0.08200
Br644      Br  0.37040687  0.78124442  0.47304683    -0.02400
C645        C  0.69766770  0.89908579  0.36191091    -0.09100
C646        C  0.68350515  0.89698291  0.38770672     0.07100
C647        C  0.69594728  0.93519839  0.40087765    -0.02800
C648        C  0.72223153  0.97389083  0.38854469    -0.07300
C649        C  0.73667059  0.97609875  0.36282126     0.06200
C650        C  0.72407238  0.93793458  0.34962513    -0.02300
Br651      Br  0.74547551  0.93749081  0.31551349    -0.02000
H652        H  0.68815185  0.87040208  0.35121424     0.10200
H653        H  0.73365274  0.00248220  0.39974428     0.08200
Br654      Br  0.68127907  0.93642858  0.43676399    -0.02400
C655        C  0.42042170  0.58656093  0.39493112    -0.09100
C656        C  0.43378717  0.60624088  0.41936121     0.07100
C657        C  0.41713368  0.58156127  0.44221824    -0.02800
C658        C  0.38550780  0.53950105  0.44011209    -0.07300
C659        C  0.36979766  0.52133299  0.41567039     0.06200
C660        C  0.38894512  0.54474438  0.39293247    -0.02300
Br661      Br  0.37232574  0.52173204  0.35847292    -0.02000
H662        H  0.43353621  0.60403387  0.37704419     0.10200
H663        H  0.37099695  0.52188326  0.45776852     0.08200
Br664      Br  0.43447991  0.60263378  0.47698727    -0.02400
C665        C  0.37981208  0.56335172  0.18744864    -0.09100
C666        C  0.35111296  0.55396663  0.16709265     0.07100
C667        C  0.36345343  0.58009500  0.14477200    -0.02800
C668        C  0.40374993  0.61496700  0.14337531    -0.07300
C669        C  0.43179103  0.62477092  0.16405122     0.06200
C670        C  0.41985748  0.59848278  0.18609023    -0.02300
Br671      Br  0.45743572  0.60895133  0.21458179    -0.02000
H672        H  0.37115919  0.54320256  0.20446114     0.10200
H673        H  0.41241053  0.63586546  0.12673062     0.08200
Br674      Br  0.32588550  0.57263264  0.11672938    -0.02400
C675        C  0.66213431  0.70453957  0.11939999    -0.09100
C676        C  0.66865746  0.72754513  0.14286516     0.07100
C677        C  0.70327384  0.73475759  0.15826888    -0.02800
C678        C  0.73162328  0.72258187  0.14921578    -0.07300
C679        C  0.72737713  0.70328023  0.12462211     0.06200
C680        C  0.69088970  0.69260056  0.11028590    -0.02300
Br681      Br  0.68051274  0.66468238  0.07728201    -0.02000
H682        H  0.63520546  0.69707288  0.10739475     0.10200
H683        H  0.75901481  0.73074257  0.16096719     0.08200
Br684      Br  0.71405200  0.76100868  0.19193976    -0.02400
C685        C  0.60472948  0.76018314  0.27655668    -0.09100
C686        C  0.56573107  0.74214503  0.26385783     0.07100
C687        C  0.52878233  0.71965387  0.27882441    -0.02800
C688        C  0.53136338  0.71771081  0.30579221    -0.07300
C689        C  0.57000370  0.73832438  0.31874845     0.06200
C690        C  0.60718100  0.75872281  0.30382315    -0.02300
Br691      Br  0.66171644  0.78854718  0.31934364    -0.02000
H692        H  0.63343629  0.77761415  0.26541196     0.10200
H693        H  0.50246665  0.70100823  0.31686937     0.08200
Br694      Br  0.47329360  0.69134776  0.26432054    -0.02400
C695        C  0.60188401  0.82119483  0.05392707    -0.09100
C696        C  0.56441043  0.79891740  0.06812921     0.07100
C697        C  0.52598382  0.77909811  0.05483429    -0.02800
C698        C  0.52555454  0.77832587  0.02764732    -0.07300
C699        C  0.56303587  0.79763864  0.01329480     0.06200
C700        C  0.60143115  0.82074548  0.02652104    -0.02300
Br701      Br  0.65486960  0.84743408  0.50836629    -0.02000
H702        H  0.63155938  0.83682809  0.06409430     0.10200
H703        H  0.49581361  0.76109223  0.01764512     0.08200
Br704      Br  0.47327458  0.75188542  0.07306957    -0.02400
C705        C  0.38600396  0.81504747  0.18438907    -0.09100
C706        C  0.36514811  0.80586495  0.16035819     0.07100
C707        C  0.38409333  0.79989687  0.13812852    -0.02800
C708        C  0.42118029  0.79909142  0.14069095    -0.07300
C709        C  0.44006246  0.80420959  0.16517114     0.06200
C710        C  0.42333940  0.81437225  0.18695934    -0.02300
Br711      Br  0.45008352  0.82823022  0.22045094    -0.02000
H712        H  0.37213555  0.82055361  0.20151652     0.10200
H713        H  0.43429026  0.79260089  0.12356772     0.08200
Br714      Br  0.36054072  0.79225793  0.10379330    -0.02400
C715        C  0.90732855  0.56512395  0.05938506    -0.09100
C716        C  0.93033007  0.57818928  0.03576417     0.07100
C717        C  0.93840069  0.61678075  0.02505853    -0.02800
C718        C  0.92432336  0.64131877  0.03780711    -0.07300
C719        C  0.90003414  0.62760297  0.06083247     0.06200
C720        C  0.89206300  0.58919171  0.07174234    -0.02300
Br721      Br  0.86044362  0.56851567  0.10341474    -0.02000
H722        H  0.89913342  0.53486286  0.06753626     0.10200
H723        H  0.93148159  0.67101435  0.02921221     0.08200
Br724      Br  0.96814156  0.63691770  0.49273586    -0.02400
C725        C  0.04788019  0.41670904  0.49087507    -0.09100
C726        C  0.01742161  0.41335565  0.47321215     0.07100
C727        C  0.01622798  0.39555601  0.44828879    -0.02800
C728        C  0.04577402  0.38372533  0.44123122    -0.07300
C729        C  0.07707476  0.38847356  0.45854557     0.06200
C730        C  0.07688775  0.40404460  0.48397807    -0.02300
Br731      Br  0.11549314  0.40825277  0.51051051    -0.02000
H732        H  0.04814077  0.42748113  0.01049877     0.10200
H733        H  0.04568878  0.37302080  0.42151720     0.08200
Br734      Br  0.97691632  0.38898379  0.42183183    -0.02400
C735        C  0.87934031  0.26725564  0.26824387    -0.09100
C736        C  0.91827632  0.30409170  0.27207801     0.07100
C737        C  0.94734974  0.30163877  0.28848115    -0.02800
C738        C  0.93670984  0.26359976  0.30123760    -0.07300
C739        C  0.89670818  0.22698268  0.29850495     0.06200
C740        C  0.86827430  0.22941205  0.28112511    -0.02300
Br741      Br  0.81289712  0.18353075  0.27457340    -0.02000
H742        H  0.85599049  0.26865863  0.25620825     0.10200
H743        H  0.95982265  0.26322992  0.31398734     0.08200
Br744      Br  0.00056701  0.35023383  0.29558442    -0.02400
C745        C  0.00865270  0.59543450  0.21705041    -0.09100
C746        C  0.01386793  0.55994357  0.21487445     0.07100
C747        C  0.04619065  0.56351664  0.19827229    -0.02800
C748        C  0.07286539  0.60166602  0.18571264    -0.07300
C749        C  0.06899333  0.63750121  0.18909288     0.06200
C750        C  0.03577672  0.63373310  0.20448267    -0.02300
Br751      Br  0.02802885  0.68068277  0.21022772    -0.02000
H752        H  0.98376145  0.59390053  0.22909093     0.10200
H753        H  0.09872380  0.60410933  0.17421422     0.08200
Br754      Br  0.05699310  0.51852492  0.19184869    -0.02400
C755        C  0.89591695  0.48672123  0.35584982    -0.09100
C756        C  0.91244811  0.46471134  0.34292834     0.07100
C757        C  0.93167706  0.44676173  0.35746829    -0.02800
C758        C  0.93189406  0.44883046  0.38457753    -0.07300
C759        C  0.91253573  0.46781985  0.39778160     0.06200
C760        C  0.89540415  0.48804785  0.38320960    -0.02300
Br761      Br  0.86578530  0.51252221  0.39935555    -0.02000
H762        H  0.88044379  0.49999118  0.34475790     0.10200
H763        H  0.94567878  0.43382870  0.39547226     0.08200
Br764      Br  0.95616418  0.41707875  0.34129326    -0.02400
C765        C  0.94544912  0.43782935  0.13684989    -0.09100
C766        C  0.90780231  0.40825507  0.14888103     0.07100
C767        C  0.87261496  0.38320066  0.13321977    -0.02800
C768        C  0.87469244  0.38968926  0.10635110    -0.07300
C769        C  0.91131571  0.42108729  0.09433599     0.06200
C770        C  0.94747387  0.44464514  0.10977525    -0.02300
Br771      Br  0.99901181  0.48939216  0.09583842    -0.02000
H772        H  0.97257568  0.45758194  0.14871631     0.10200
H773        H  0.84691370  0.37060149  0.09483099     0.08200
Br774      Br  0.82038810  0.33980339  0.14738674    -0.02400
C775        C  0.71116576  0.59691083  0.32016137    -0.09100
C776        C  0.74518665  0.62742857  0.30548622     0.07100
C777        C  0.73810958  0.63177690  0.27879892    -0.02800
C778        C  0.69850261  0.60657837  0.26750797    -0.07300
C779        C  0.66425194  0.57593769  0.28195183     0.06200
C780        C  0.67130312  0.57120683  0.30865189    -0.02300
Br781      Br  0.62878106  0.52765229  0.32975711    -0.02000
H782        H  0.71547708  0.59309037  0.34066886     0.10200
H783        H  0.69491068  0.60984734  0.24680097     0.08200
Br784      Br  0.78251691  0.66998244  0.25604741    -0.02400
C785        C  0.39098229  0.38625415  0.20154545    -0.09100
C786        C  0.40822403  0.40790131  0.22524706     0.07100
C787        C  0.38225492  0.41643798  0.24122403    -0.02800
C788        C  0.34166775  0.40549827  0.23291005    -0.07300
C789        C  0.32524578  0.38611267  0.20850148     0.06200
C790        C  0.35044024  0.37572174  0.19307480    -0.02300
Br791      Br  0.33283389  0.35049843  0.15932120    -0.02000
H792        H  0.40978095  0.37858292  0.18894222     0.10200
H793        H  0.32320460  0.41377998  0.24539861     0.08200
Br794      Br  0.39982808  0.44197228  0.27493652    -0.02400
C795        C  0.77380779  0.48010430  0.26112748    -0.09100
C796        C  0.78260333  0.46355428  0.23886947     0.07100
C797        C  0.75410553  0.44937922  0.21786252    -0.02800
C798        C  0.71612848  0.44833856  0.22040959    -0.07300
C799        C  0.70581573  0.46168922  0.24342837     0.06200
C800        C  0.73578649  0.47954204  0.26348776    -0.02300
Br801      Br  0.72736804  0.50497880  0.29388600    -0.02000
H802        H  0.79579035  0.49202527  0.27717336     0.10200
H803        H  0.69400465  0.43588897  0.20444544     0.08200
Br804      Br  0.76483063  0.43125424  0.18496717    -0.02400
C805        C  0.39786467  0.26816883  0.01706024    -0.09100
C806        C  0.39717949  0.30526264  0.02258173     0.07100
C807        C  0.36843116  0.30314843  0.04145414    -0.02800
C808        C  0.34208347  0.26508304  0.05462176    -0.07300
C809        C  0.34407995  0.22822724  0.04994665     0.06200
C810        C  0.37229968  0.23036353  0.03040477    -0.02300
Br811      Br  0.37866107  0.18355764  0.02081447    -0.02000
H812        H  0.42011992  0.26925395  0.50291711     0.10200
H813        H  0.32048657  0.26472450  0.06911685     0.08200
Br814      Br  0.36606938  0.35207920  0.05104348    -0.02400
C815        C  0.71153878  0.46575937  0.01334078    -0.09100
C816        C  0.69258134  0.45970044  0.48896219     0.07100
C817        C  0.71218872  0.45447318  0.46681382    -0.02800
C818        C  0.74936355  0.45375030  0.46963688    -0.07300
C819        C  0.76739782  0.45765273  0.99426050     0.06200
C820        C  0.74851456  0.46459276  0.01629157    -0.02300
Br821      Br  0.77134496  0.47334032  0.05089288    -0.02000
H822        H  0.69661182  0.46969153  0.03050595     0.10200
H823        H  0.76360861  0.44906282  0.45240020     0.08200
Br824      Br  0.69006872  0.44886288  0.43220305    -0.02400
C825        C  0.55444938  0.60546066  0.43314767    -0.09100
C826        C  0.58885238  0.64223090  0.44313169     0.07100
C827        C  0.60994299  0.63833570  0.46475964    -0.02800
C828        C  0.59683215  0.59867119  0.47581350    -0.07300
C829        C  0.56149339  0.56181992  0.46638423     0.06200
C830        C  0.54057162  0.56584427  0.44448485    -0.02300
Br831      Br  0.49270731  0.51898071  0.42904082    -0.02000
H832        H  0.53643373  0.60794473  0.41730608     0.10200
H833        H  0.61427489  0.59654525  0.99171520     0.08200
Br834      Br  0.65506523  0.68687179  0.48085669    -0.02400
C835        C  0.60284661  0.47926428  0.10480183    -0.09100
C836        C  0.56450971  0.46157092  0.09169549     0.07100
C837        C  0.52713868  0.44657191  0.10609767    -0.02800
C838        C  0.52818847  0.44633615  0.13334107    -0.07300
C839        C  0.56625591  0.46134743  0.14657578     0.06200
C840        C  0.60402859  0.47922548  0.13211831    -0.02300
Br841      Br  0.65749694  0.49881735  0.14830907    -0.02000
H842        H  0.63164081  0.49030343  0.09380145     0.10200
H843        H  0.49905217  0.43325656  0.14421653     0.08200
Br844      Br  0.47387965  0.42495694  0.08923628    -0.02400
C845        C  0.50434371  0.43513760  0.38543037    -0.09100
C846        C  0.50930906  0.40401177  0.39765692     0.07100
C847        C  0.51661133  0.37669238  0.38224728    -0.02800
C848        C  0.52223863  0.38299848  0.35533742    -0.07300
C849        C  0.52061045  0.41624006  0.34321568     0.06200
C850        C  0.51014779  0.44170134  0.35843783    -0.02300
Br851      Br  0.50834408  0.48904456  0.34448464    -0.02000
H852        H  0.49907561  0.45644280  0.39712906     0.10200
H853        H  0.52916031  0.36247961  0.34392900     0.08200
Br854      Br  0.51999030  0.33070879  0.39710231    -0.02400
C855        C  0.41538604  0.09785467  0.28495038    -0.09100
C856        C  0.40557408  0.05556754  0.28275430     0.07100
C857        C  0.36840873  0.02490697  0.29490720    -0.02800
C858        C  0.34114663  0.03648214  0.30705459    -0.07300
C859        C  0.35017414  0.07869361  0.30809217     0.06200
C860        C  0.38866934  0.10952194  0.29732674    -0.02300
Br861      Br  0.40532667  0.16786655  0.29668474    -0.02000
H862        H  0.44416784  0.12253342  0.27642256     0.10200
H863        H  0.31191965  0.01192047  0.31517770     0.08200
Br864      Br  0.35196893  0.96676646  0.29388892    -0.02400
C865        C  0.74883839  0.25391484  0.23022111    -0.09100
C866        C  0.75727630  0.28007677  0.25209078     0.07100
C867        C  0.73083057  0.26414571  0.27416551    -0.02800
C868        C  0.69621485  0.22385277  0.27344880    -0.07300
C869        C  0.68615374  0.19863802  0.25098522     0.06200
C870        C  0.71379668  0.21366075  0.22940764    -0.02300
Br871      Br  0.70541265  0.18259920  0.19768097    -0.02000
H872        H  0.76925880  0.26502771  0.21328635     0.10200
H873        H  0.67597259  0.21292296  0.29046966     0.08200
Br874      Br  0.73741177  0.29557583  0.30553339    -0.02400
C875        C  0.56030628  0.92239046  0.23933512    -0.09100
C876        C  0.57550046  0.96197359  0.22757550     0.07100
C877        C  0.60708940  0.97359723  0.20785537    -0.02800
C878        C  0.61945534  0.94532773  0.19919744    -0.07300
C879        C  0.60293924  0.90534219  0.20998407     0.06200
C880        C  0.57423671  0.89469698  0.23104156    -0.02300
Br881      Br  0.55175257  0.84170495  0.24834611    -0.02000
H882        H  0.53746689  0.91281827  0.25496488     0.10200
H883        H  0.64071140  0.95392384  0.18270537     0.08200
Br884      Br  0.63403565  0.02652884  0.18971631    -0.02400
C885        C  0.53276859  0.23265537  0.26891696    -0.09100
C886        C  0.53122903  0.21220257  0.24545735     0.07100
C887        C  0.52898866  0.23060464  0.22159172    -0.02800
C888        C  0.52908319  0.26862887  0.22185087    -0.07300
C889        C  0.53195270  0.28940500  0.24533272     0.06200
C890        C  0.53323315  0.27065773  0.26908400    -0.02300
Br891      Br  0.53432821  0.29438165  0.30272209    -0.02000
H892        H  0.53381620  0.21918344  0.28747923     0.10200
H893        H  0.52840639  0.28280032  0.20347626     0.08200
Br894      Br  0.52690168  0.20716581  0.18768654    -0.02400
C895        C  0.70788578  0.04436588  0.06115532    -0.09100
C896        C  0.74510627  0.08338934  0.05710328     0.07100
C897        C  0.74333137  0.11108116  0.03877153    -0.02800
C898        C  0.70590728  0.09969038  0.02547641    -0.07300
C899        C  0.66873587  0.06069428  0.02937736     0.06200
C900        C  0.67028370  0.03299720  0.04768594    -0.02300
Br901      Br  0.62298942  0.97845797  0.05416293    -0.02000
H902        H  0.70802355  0.02192625  0.07469197     0.10200
H903        H  0.70612611  0.12229489  0.01191053     0.08200
Br904      Br  0.79085252  0.16436772  0.02948191    -0.02400
C905        C  0.50962815  0.21006083  0.01681250    -0.09100
C906        C  0.51767301  0.19569098  0.49353228     0.07100
C907        C  0.52733129  0.22028946  0.47085740    -0.02800
C908        C  0.53213301  0.26016012  0.47244770    -0.07300
C909        C  0.52706378  0.27597421  0.99618863     0.06200
C910        C  0.51393196  0.24974209  0.01842041    -0.02300
Br911      Br  0.50087483  0.26533705  0.05142516    -0.02000
H912        H  0.50185533  0.19099807  0.03429634     0.10200
H913        H  0.54146207  0.27942848  0.45501526     0.08200
Br914      Br  0.53923308  0.20330194  0.43800063    -0.02400
C915        C  0.36317305  0.88717841  0.45716020    -0.09100
C916        C  0.33026501  0.89589040  0.45384828     0.07100
C917        C  0.33562986  0.93331523  0.46462765    -0.02800
C918        C  0.37381380  0.96179352  0.47686899    -0.07300
C919        C  0.40760055  0.95395779  0.47904501     0.06200
C920        C  0.40109682  0.91529166  0.46951466    -0.02300
Br921      Br  0.44394794  0.90042052  0.47039841    -0.02000
H922        H  0.35983727  0.85836816  0.44939328     0.10200
H923        H  0.37764816  0.99119432  0.48388986     0.08200
Br924      Br  0.29355079  0.94874950  0.46098882    -0.02400
C925        C  0.53074752  0.03595391  0.10862011    -0.09100
C926        C  0.52501864  0.06533631  0.09464811     0.07100
C927        C  0.51465523  0.09214350  0.10821097    -0.02800
C928        C  0.51267805  0.09084994  0.13546125    -0.07300
C929        C  0.52163034  0.06368425  0.14946284     0.06200
C930        C  0.52943817  0.03516957  0.13587177    -0.02300
Br931      Br  0.53803303  0.99437867  0.15355047    -0.02000
H932        H  0.53827986  0.01488264  0.09837027     0.10200
H933        H  0.50612780  0.11256764  0.14578431     0.08200
Br934      Br  0.50299090  0.13101359  0.09057219    -0.02400
C935        C  0.58392076  0.07462961  0.35586704    -0.09100
C936        C  0.54415195  0.05160787  0.34471945     0.07100
C937        C  0.50884625  0.02883755  0.36078526    -0.02800
C938        C  0.51344271  0.03228844  0.38787330    -0.07300
C939        C  0.55299796  0.05771178  0.39916224     0.06200
C940        C  0.58876328  0.07751465  0.38290404    -0.02300
Br941      Br  0.64442880  0.11300789  0.39592799    -0.02000
H942        H  0.61113157  0.09217302  0.34344630     0.10200
H943        H  0.48578442  0.01649706  0.40013895     0.08200
Br944      Br  0.45341960  0.99656508  0.34670520    -0.02400
C945        C  0.72094954  0.23223819  0.01753867    -0.09100
C946        C  0.69951020  0.21627339  0.99389664     0.07100
C947        C  0.71910736  0.23730553  0.47046718    -0.02800
C948        C  0.75834827  0.27396040  0.47115876    -0.07300
C949        C  0.77859457  0.29080075  0.49489559     0.06200
C950        C  0.75997103  0.26891315  0.01821107    -0.02300
Br951      Br  0.78650902  0.28727273  0.05165533    -0.02000
H952        H  0.70721284  0.21630710  0.03578457     0.10200
H953        H  0.77200817  0.29070718  0.45311247     0.08200
Br954      Br  0.69355131  0.22036802  0.43668936    -0.02400
Zn955      Zn  0.51209657  0.07826397  0.97430101     1.49700
Zn956      Zn  0.53604038  0.02971202  0.51577822     1.49400
Zn957      Zn  0.60200572  0.09498211  0.97628819     1.49100
Zn958      Zn  0.57489860  0.12710733  0.52099566     1.49500
O959        O  0.55412253  0.08130068  0.49727199    -1.84000
O960        O  0.45763739  0.02610460  0.98152514    -0.74700
O961        O  0.59201868  0.02793100  0.52336262    -0.74500
O962        O  0.58654461  0.07147951  0.94042483    -0.74000
O963        O  0.47883418  0.98360438  0.49751845    -0.74700
O964        O  0.52638609  0.07117585  0.93736808    -0.74300
O965        O  0.63611959  0.07714421  0.99563069    -0.74900
O966        O  0.63758306  0.16639045  0.51673876    -0.74300
O967        O  0.52037826  0.03709617  0.55234527    -0.75000
O968        O  0.64112325  0.15676578  0.97429196    -0.74400
O969        O  0.55778888  0.10636921  0.55751395    -0.74900
O970        O  0.54889250  0.16080648  0.51223127    -0.74800
O971        O  0.50723250  0.13022216  0.97776707    -0.74600
C972        C  0.45030305  0.98932957  0.98698137     0.77200
C973        C  0.62960214  0.05291311  0.51510297     0.77700
C974        C  0.55550944  0.06686053  0.92712411     0.76700
C975        C  0.65729084  0.17806539  0.49502113     0.77000
C976        C  0.53415108  0.06968615  0.56660103     0.78200
C977        C  0.52402401  0.15980398  0.99441921     0.77200
Zn978      Zn  0.58010236  0.07922623  0.72562145     1.49700
Zn979      Zn  0.50517412  0.02149468  0.76460519     1.49400
Zn980      Zn  0.55824545  0.11860384  0.77363998     1.49100
Zn981      Zn  0.50498520  0.09011691  0.72786457     1.49500
O982        O  0.53812389  0.07540392  0.74822646    -1.84000
O983        O  0.58737437  0.03055009  0.73218629    -0.74700
O984        O  0.52536937  0.02595916  0.80144687    -0.74500
O985        O  0.61857158  0.15558658  0.76773351    -0.74000
O986        O  0.52450852  0.98033031  0.74578307    -0.74700
O987        O  0.63437885  0.13341571  0.73157992    -0.74300
O988        O  0.55091210  0.09402977  0.80921303    -0.74900
O989        O  0.52993513  0.15201212  0.72638845    -0.74300
O990        O  0.44658820  0.01974460  0.77314516    -0.75000
O991        O  0.53488161  0.15771923  0.76916451    -0.74400
O992        O  0.45369027  0.07243330  0.74819451    -0.74900
O993        O  0.49815083  0.06943743  0.69136700    -0.74800
O994        O  0.56040334  0.07385062  0.68821974    -0.74600
C995        C  0.56140715  0.99196862  0.73605415     0.77200
C996        C  0.54003344  0.05712959  0.81691076     0.77700
C997        C  0.64458287  0.16002966  0.74996461     0.76700
C998        C  0.53224501  0.17209876  0.74701035     0.77000
C999        C  0.43575789  0.04700819  0.76694713     0.78200
C1000       C  0.52656641  0.06824737  0.67790956     0.77200
Zn1001     Zn  0.58517851  0.47348146  0.50791220     1.49700
Zn1002     Zn  0.56145474  0.39805896  0.97013977     1.49400
Zn1003     Zn  0.52852683  0.38333681  0.52397691     1.49100
Zn1004     Zn  0.49336584  0.42266678  0.98043583     1.49500
O1005       O  0.54084910  0.42082403  0.99529652    -1.84000
O1006       O  0.64050722  0.47600174  0.50175516    -0.74700
O1007       O  0.53531548  0.33696745  0.97577957    -0.74500
O1008       O  0.54491954  0.41259008  0.55810011    -0.74000
O1009       O  0.62288980  0.42313749  0.97397573    -0.74700
O1010       O  0.57952541  0.47993561  0.54687634    -0.74300
O1011       O  0.54588879  0.34034780  0.51846344    -0.74900
O1012       O  0.43767967  0.37324101  0.99946699    -0.74300
O1013       O  0.54702734  0.40519322  0.93450069    -0.75000
O1014       O  0.46859420  0.34806166  0.52528640    -0.74400
O1015       O  0.48905903  0.40806621  0.94136101    -0.74900
O1016       O  0.51332132  0.48773222  0.97749648    -0.74800
O1017       O  0.58130553  0.51797246  0.48818225    -0.74600
C1018       C  0.64996356  0.45328854  0.98766663     0.77200
C1019       C  0.53650932  0.31985797  0.49716585     0.77700
C1020       C  0.56308440  0.45117844  0.56410948     0.76700
C1021       C  0.43588308  0.34527081  0.51564543     0.77000
C1022       C  0.51488859  0.40530024  0.92599547     0.78200
C1023       C  0.55083031  0.51994911  0.97781271     0.77200
Zn1024     Zn  0.52017446  0.39731089  0.72146066     1.49700
Zn1025     Zn  0.58149935  0.41730007  0.77032858     1.49400
Zn1026     Zn  0.60493497  0.47735194  0.72626024     1.49100
Zn1027     Zn  0.53488360  0.46691262  0.76506219     1.49500
O1028       O  0.55741214  0.43815691  0.74588501    -1.84000
O1029       O  0.51844536  0.34140572  0.72764790    -0.74700
O1030       O  0.64472273  0.44762499  0.76737352    -0.74500
O1031       O  0.59154049  0.48411846  0.68962129    -0.74000
O1032       O  0.56173882  0.35801983  0.76140977    -0.74700
O1033       O  0.53870111  0.41890333  0.68446029    -0.74300
O1034       O  0.64628775  0.45858216  0.72481064    -0.74900
O1035       O  0.58907585  0.52545441  0.77544121    -0.74300
O1036       O  0.56124841  0.41750760  0.80673847    -0.75000
O1037       O  0.63600991  0.52966039  0.74638430    -0.74400
O1038       O  0.51670872  0.44044501  0.80062270    -0.74900
O1039       O  0.47741366  0.45197302  0.74579745    -0.74800
O1040       O  0.46382324  0.39304741  0.72495854    -0.74600
C1041       C  0.53723881  0.33159670  0.74476159     0.77200
C1042       C  0.66379957  0.45608167  0.74548734     0.77700
C1043       C  0.56544473  0.45462326  0.67508930     0.76700
C1044       C  0.62721651  0.54269405  0.76704967     0.77000
C1045       C  0.53333804  0.42513182  0.81534623     0.78200
C1046       C  0.45225656  0.41861469  0.73266184     0.77200
Zn1047     Zn  0.94210534  0.42293272  0.73162635     1.49700
Zn1048     Zn  0.90254276  0.47513274  0.75899460     1.49400
Zn1049     Zn  0.84953149  0.39851707  0.72244919     1.49100
Zn1050     Zn  0.86857886  0.38508047  0.77547819     1.49500
O1051       O  0.89339899  0.42197155  0.74693815    -1.84000
O1052       O  0.98820492  0.48726659  0.72913533    -0.74700
O1053       O  0.85080162  0.47942526  0.75274733    -0.74500
O1054       O  0.87101964  0.40627294  0.68653999    -0.74000
O1055       O  0.95074722  0.51801804  0.73823397    -0.74700
O1056       O  0.93258241  0.41056588  0.69235581    -0.74300
O1057       O  0.81496689  0.42481067  0.72667168    -0.74900
O1058       O  0.80739191  0.34509146  0.77127127    -0.74300
O1059       O  0.91489172  0.48235159  0.79786230    -0.75000
O1060       O  0.81215466  0.33758992  0.72898432    -0.74400
O1061       O  0.88302383  0.41510152  0.80923185    -0.74900
O1062       O  0.89087749  0.34762952  0.77570889    -0.74800
O1063       O  0.94677673  0.37223066  0.74955680    -0.74600
C1064       C  0.98312454  0.51943961  0.72823886     0.77200
C1065       C  0.81844980  0.45609399  0.73915677     0.77700
C1066       C  0.90378650  0.40793159  0.67740496     0.76700
C1067       C  0.79384061  0.32304753  0.75071307     0.77000
C1068       C  0.90313115  0.45374628  0.81514200     0.78200
C1069       C  0.92009432  0.34406118  0.76541861     0.77200
Zn1070     Zn  0.89520905  0.40294411  0.97152524     1.49700
Zn1071     Zn  0.88961549  0.48237642  0.97781774     1.49400
Zn1072     Zn  0.85287934  0.41868056  0.52107411     1.49100
Zn1073     Zn  0.95005121  0.47054334  0.51584394     1.49500
O1074       O  0.89820966  0.44246732  0.99664056    -1.84000
O1075       O  0.89716465  0.42539010  0.93530782    -0.74700
O1076       O  0.82894861  0.46308471  0.97603658    -0.74500
O1077       O  0.81675226  0.35818894  0.51317542    -0.74000
O1078       O  0.91039275  0.49068708  0.94091607    -0.74700
O1079       O  0.84260256  0.34605594  0.97700763    -0.74300
O1080       O  0.81489881  0.44302826  0.51734435    -0.74900
O1081       O  0.94130770  0.44389838  0.55156934    -0.74300
O1082       O  0.91102680  0.53384959  0.99923178    -0.75000
O1083       O  0.87392625  0.42264127  0.55749339    -0.74400
O1084       O  0.95501438  0.52889023  0.52681222    -0.74900
O1085       O  0.99312349  0.45632856  0.49593471    -0.74800
O1086       O  0.94723389  0.39908148  0.97374000    -0.74600
C1087       C  0.90640463  0.46118699  0.92612549     0.77200
C1088       C  0.80574434  0.45457830  0.49615496     0.77700
C1089       C  0.81509284  0.33358343  0.99516551     0.76700
C1090       C  0.90916664  0.42987394  0.56631592     0.77000
C1091       C  0.93398169  0.54636513  0.51947842     0.78200
C1092       C  0.98444363  0.42369406  0.98158789     0.77200
Zn1093     Zn  0.60898948  0.79056051  0.68680937     1.49700
Zn1094     Zn  0.55196814  0.73108584  0.63988276     1.49400
Zn1095     Zn  0.51332511  0.75010638  0.69069202     1.49100
Zn1096     Zn  0.55806795  0.81567340  0.64919031     1.49500
O1097       O  0.55893838  0.77025983  0.66645997    -1.84000
O1098       O  0.64823979  0.77249272  0.66652630    -0.74700
O1099       O  0.49704908  0.67681895  0.64567054    -0.74500
O1100       O  0.53237454  0.75031430  0.72696092    -0.74000
O1101       O  0.60155187  0.72189461  0.64059104    -0.74700
O1102       O  0.59582378  0.75940112  0.72098267    -0.74300
O1103       O  0.47326758  0.69082474  0.68219713    -0.74900
O1104       O  0.49993533  0.80533052  0.64788333    -0.74300
O1105       O  0.55174929  0.75575322  0.60455218    -0.75000
O1106       O  0.48110536  0.78089900  0.68810448    -0.74400
O1107       O  0.57806344  0.82391928  0.61203802    -0.74900
O1108       O  0.58451793  0.86510794  0.67211598    -0.74800
O1109       O  0.62013029  0.84984692  0.70083328    -0.74600
C1110       C  0.63811884  0.74155260  0.65060908     0.77200
C1111       C  0.46984381  0.66609183  0.66387846     0.77700
C1112       C  0.56449326  0.75024257  0.73568090     0.76700
C1113       C  0.47585633  0.79698741  0.66751743     0.77000
C1114       C  0.56569257  0.79315687  0.59639676     0.78200
C1115       C  0.60432538  0.87234676  0.69346104     0.77200
Zn1116     Zn  0.56916929  0.80900987  0.92883589     1.49700
Zn1117     Zn  0.53447937  0.71849097  0.94603272     1.49400
Zn1118     Zn  0.51568915  0.73109590  0.89261683     1.49100
Zn1119     Zn  0.60844836  0.75765939  0.90079140     1.49500
O1120       O  0.55977298  0.75573352  0.91700435    -1.84000
O1121       O  0.57813767  0.81581151  0.96813457    -0.74700
O1122       O  0.47518575  0.67173080  0.94063318    -0.74500
O1123       O  0.47947920  0.75549541  0.89684681    -0.74000
O1124       O  0.54047316  0.74862243  0.97933172    -0.74700
O1125       O  0.51715780  0.81190430  0.92161936    -0.74300
O1126       O  0.48197527  0.66925252  0.89815607    -0.74900
O1127       O  0.59745594  0.74290856  0.86187393    -0.74300
O1128       O  0.56230257  0.68589778  0.94892893    -0.75000
O1129       O  0.53650577  0.73995064  0.85685388    -0.74400
O1130       O  0.61336020  0.70795901  0.91890734    -0.74900
O1131       O  0.65492077  0.82229999  0.89764284    -0.74800
O1132       O  0.61890708  0.85356989  0.90962416    -0.74600
C1133       C  0.56078662  0.78721690  0.98541967     0.77200
C1134       C  0.46497961  0.65096808  0.91949304     0.77700
C1135       C  0.48401340  0.78748286  0.90901141     0.76700
C1136       C  0.56846802  0.74052109  0.84725932     0.77000
C1137       C  0.59003394  0.68188287  0.93683422     0.78200
C1138       C  0.65109272  0.85519190  0.89918415     0.77200
Zn1139     Zn  0.25823381  0.40142038  0.93654864     1.49700
Zn1140     Zn  0.16670262  0.36630356  0.90854963     1.49400
Zn1141     Zn  0.20892346  0.44207036  0.95237917     1.49100
Zn1142     Zn  0.24112064  0.45436247  0.89637971     1.49500
O1143       O  0.21680314  0.41366335  0.92335487    -1.84000
O1144       O  0.25170720  0.35225812  0.91627827    -0.74700
O1145       O  0.11449152  0.36197145  0.93102750    -0.74500
O1146       O  0.22763457  0.43084806  0.98689649    -0.74000
O1147       O  0.18447190  0.31967248  0.90363042    -0.74700
O1148       O  0.24949700  0.38700327  0.97535859    -0.74300
O1149       O  0.14908842  0.41796190  0.95653357    -0.74900
O1150       O  0.22652416  0.49846228  0.90188035    -0.74300
O1151       O  0.15829481  0.37849222  0.86982324    -0.75000
O1152       O  0.22719746  0.50255210  0.94511956    -0.74400
O1153       O  0.22110782  0.43269052  0.86092433    -0.74900
O1154       O  0.30237375  0.48399068  0.89842106    -0.74800
O1155       O  0.31594518  0.45359455  0.93143357    -0.74600
C1156       C  0.22049928  0.32172160  0.90504407     0.77200
C1157       C  0.11492296  0.38785454  0.94833791     0.77700
C1158       C  0.23921059  0.40474651  0.99285749     0.76700
C1159       C  0.22580426  0.51672414  0.92269247     0.77000
C1160       C  0.18480109  0.40496211  0.85356680     0.78200
C1161       C  0.32772175  0.48306526  0.91466349     0.77200
Zn1162     Zn  0.25052242  0.44432706  0.70043655     1.49700
Zn1163     Zn  0.21217985  0.36457206  0.65973749     1.49400
Zn1164     Zn  0.16072736  0.40599333  0.68567637     1.49100
Zn1165     Zn  0.23113403  0.45378125  0.64407433     1.49500
O1166       O  0.21316903  0.41482772  0.67233365    -1.84000
O1167       O  0.28530711  0.41894341  0.70533577    -0.74700
O1168       O  0.14674039  0.31955190  0.65644555    -0.74500
O1169       O  0.15459988  0.39416732  0.72501400    -0.74000
O1170       O  0.26064245  0.36063493  0.68163930    -0.74700
O1171       O  0.22111029  0.43793405  0.73492576    -0.74300
O1172       O  0.11631886  0.35729276  0.66615818    -0.74900
O1173       O  0.20229875  0.48664596  0.64528375    -0.74300
O1174       O  0.22943129  0.37130910  0.62068613    -0.75000
O1175       O  0.15880249  0.45937418  0.67912622    -0.74400
O1176       O  0.22654681  0.42796453  0.60945725    -0.74900
O1177       O  0.29121108  0.49616311  0.64835074    -0.74800
O1178       O  0.29272469  0.50404088  0.69128676    -0.74600
C1179       C  0.28790248  0.38763528  0.69775538     0.77200
C1180       C  0.11436312  0.32446190  0.65661141     0.77700
C1181       C  0.18325269  0.41355417  0.74191624     0.76700
C1182       C  0.17721711  0.48786782  0.66181963     0.77000
C1183       C  0.23045180  0.39675284  0.60338805     0.78200
C1184       C  0.30932935  0.51652926  0.66880964     0.77200
Zn1185     Zn  0.23433768  0.73634162  0.64104125     1.49700
Zn1186     Zn  0.25281264  0.81122612  0.67898618     1.49400
Zn1187     Zn  0.16355181  0.75725295  0.65025316     1.49100
Zn1188     Zn  0.19929981  0.71879648  0.69326790     1.49500
O1189       O  0.21157799  0.75754231  0.66565503    -1.84000
O1190       O  0.29547468  0.76443076  0.64680168    -0.74700
O1191       O  0.24726822  0.85455648  0.65809552    -0.74500
O1192       O  0.16163334  0.74400300  0.61165187    -0.74000
O1193       O  0.31006859  0.81769566  0.67354722    -0.74700
O1194       O  0.22177238  0.74506898  0.60510885    -0.74300
O1195       O  0.17982593  0.82062056  0.64682986    -0.74900
O1196       O  0.13957166  0.68216784  0.69314505    -0.74300
O1197       O  0.24429463  0.81444463  0.71829129    -0.75000
O1198       O  0.10799592  0.70650205  0.66746645    -0.74400
O1199       O  0.21377461  0.74638204  0.72757656    -0.74900
O1200       O  0.21798112  0.67680528  0.68817135    -0.74800
O1201       O  0.20880129  0.67444128  0.64575976    -0.74600
C1202       C  0.32140014  0.79597124  0.66009639     0.77200
C1203       C  0.21623896  0.85419125  0.64689148     0.77700
C1204       C  0.18910435  0.74404788  0.59651021     0.76700
C1205       C  0.10673585  0.67829704  0.68295789     0.77000
C1206       C  0.22906430  0.78423292  0.73469390     0.78200
C1207       C  0.20824754  0.65627942  0.66693813     0.77200
Zn1208     Zn  0.26855403  0.79925568  0.89704818     1.49700
Zn1209     Zn  0.18295639  0.72201325  0.89220456     1.49400
Zn1210     Zn  0.24339139  0.74118350  0.94077144     1.49100
Zn1211     Zn  0.19981766  0.79323575  0.93509913     1.49500
O1212       O  0.22023928  0.76238879  0.91640735    -1.84000
O1213       O  0.25597623  0.80881651  0.86084572    -0.74700
O1214       O  0.18357416  0.66709067  0.89708937    -0.74500
O1215       O  0.30582584  0.77074442  0.93780704    -0.74000
O1216       O  0.20134312  0.74486148  0.85534409    -0.74700
O1217       O  0.30667001  0.77645408  0.89502146    -0.74300
O1218       O  0.22452586  0.68271299  0.93212707    -0.74900
O1219       O  0.18200137  0.76798405  0.97099453    -0.74300
O1220       O  0.12642350  0.71715871  0.89725251    -0.75000
O1221       O  0.22428666  0.74215658  0.97673944    -0.74400
O1222       O  0.14286819  0.77865583  0.91578298    -0.74900
O1223       O  0.25466159  0.85189963  0.94479144    -0.74800
O1224       O  0.30152640  0.84957436  0.91847349    -0.74600
C1225       C  0.22901704  0.78036059  0.84611601     0.77200
C1226       C  0.20238140  0.65754673  0.91430509     0.77700
C1227       C  0.32469286  0.77638819  0.91608766     0.76700
C1228       C  0.19759430  0.75125041  0.98543570     0.77000
C1229       C  0.11644334  0.74444165  0.90386508     0.78200
C1230       C  0.29305994  0.86528792  0.93796602     0.77200
Zn1231     Zn  0.21299702  0.13472702  0.81139371     1.49700
Zn1232     Zn  0.28222456  0.13751020  0.84783454     1.49400
Zn1233     Zn  0.18559086  0.08288399  0.85731861     1.49100
Zn1234     Zn  0.22529040  0.06033968  0.80887286     1.49500
O1235       O  0.22874960  0.10250030  0.83173798    -1.84000
O1236       O  0.23210674  0.18752202  0.82944033    -0.74700
O1237       O  0.27861668  0.11748000  0.88513022    -0.74500
O1238       O  0.15186100  0.11230395  0.85515112    -0.74000
O1239       O  0.28491407  0.19648871  0.85431791    -0.74700
O1240       O  0.15164616  0.11102072  0.81230672    -0.74300
O1241       O  0.21005923  0.08816839  0.89234240    -0.74900
O1242       O  0.17318955  0.00408729  0.81792805    -0.74300
O1243       O  0.32464785  0.12257956  0.82777967    -0.75000
O1244       O  0.14690736  0.02249731  0.85100730    -0.74400
O1245       O  0.27903133  0.05911719  0.81189667    -0.74900
O1246       O  0.22421542  0.07789533  0.77118897    -0.74800
O1247       O  0.23181925  0.14112683  0.77471428    -0.74600
C1248       C  0.25863450  0.20782637  0.84697044     0.77200
C1249       C  0.24697392  0.10037257  0.90038607     0.77700
C1250       C  0.13710035  0.11616314  0.83356556     0.76700
C1251       C  0.14493456  0.99480765  0.83533381     0.77000
C1252       C  0.31667435  0.08760216  0.81679433     0.78200
C1253       C  0.23022328  0.11198620  0.76075839     0.77200
Zn1254     Zn  0.19241729  0.04928921  0.60561616     1.49700
Zn1255     Zn  0.18159479  0.06982113  0.55271819     1.49400
Zn1256     Zn  0.23220758  0.14085763  0.59378710     1.49100
Zn1257     Zn  0.27255037  0.09101601  0.56607359     1.49500
O1258       O  0.22232321  0.08909502  0.57925793    -1.84000
O1259       O  0.13224453  0.00826504  0.59800569    -0.74700
O1260       O  0.14686455  0.09609197  0.55761556    -0.74500
O1261       O  0.24365061  0.14249454  0.63288977    -0.74000
O1262       O  0.14306232  0.00784009  0.55564687    -0.74700
O1263       O  0.20217988  0.07445810  0.64062899    -0.74300
O1264       O  0.17953020  0.14377122  0.58878336    -0.74900
O1265       O  0.31852532  0.15569112  0.56432058    -0.74300
O1266       O  0.20791736  0.08167867  0.51804706    -0.75000
O1267       O  0.28083099  0.18605072  0.57380172    -0.74400
O1268       O  0.26612658  0.08008069  0.52684934    -0.74900
O1269       O  0.27597407  0.03967645  0.58428801    -0.74800
O1270       O  0.21600812  0.01346811  0.60641483    -0.74600
C1271       C  0.12196102  0.98978085  0.57602480     0.77200
C1272       C  0.14849158  0.12326246  0.57357677     0.77700
C1273       C  0.22655715  0.11147529  0.64863763     0.76700
C1274       C  0.31333923  0.18782438  0.56366716     0.77000
C1275       C  0.24059593  0.08133631  0.51068630     0.78200
C1276       C  0.24674542  0.01041237  0.59839871     0.77200
Zn1277     Zn  0.86408419  0.68743149  0.85459116     1.49700
Zn1278     Zn  0.85292577  0.74978998  0.81467867     1.49400
Zn1279     Zn  0.90835714  0.78332774  0.86585181     1.49100
Zn1280     Zn  0.93601691  0.75481181  0.81887842     1.49500
O1281       O  0.88733513  0.74208912  0.83884551    -1.84000
O1282       O  0.80918609  0.64800277  0.83129809    -0.74700
O1283       O  0.85065344  0.80249439  0.82330383    -0.74500
O1284       O  0.88409285  0.75666739  0.90093698    -0.74000
O1285       O  0.79733081  0.69691122  0.81384985    -0.74700
O1286       O  0.84289181  0.68916958  0.89122436    -0.74300
O1287       O  0.89021851  0.82455441  0.85872931    -0.74900
O1288       O  0.97632321  0.81607251  0.82091231    -0.74300
O1289       O  0.87575833  0.75535079  0.77795955    -0.75000
O1290       O  0.97174136  0.81900640  0.86394140    -0.74400
O1291       O  0.92537787  0.73854569  0.78100518    -0.74900
O1292       O  0.96645668  0.73280656  0.83787567    -0.74800
O1293       O  0.91878604  0.68310349  0.86381991    -0.74600
C1294       C  0.78596787  0.65853407  0.81802990     0.77200
C1295       C  0.86882058  0.82964829  0.84126575     0.77700
C1296       C  0.85644503  0.71941452  0.90747910     0.76700
C1297       C  0.99142406  0.83440706  0.84254129     0.77000
C1298       C  0.90175369  0.74670114  0.76726552     0.78200
C1299       C  0.95731777  0.70776711  0.85695010     0.77200
Zn1300     Zn  0.88631442  0.78154070  0.55705366     1.49700
Zn1301     Zn  0.82339075  0.68854834  0.57494768     1.49400
Zn1302     Zn  0.91705462  0.74041693  0.59910662     1.49100
Zn1303     Zn  0.85831502  0.77248296  0.61158719     1.49500
O1304       O  0.86988973  0.74312798  0.58545902    -1.84000
O1305       O  0.86899681  0.75162555  0.52348520    -0.74700
O1306       O  0.84843131  0.64702600  0.57454855    -0.74500
O1307       O  0.96945761  0.79496826  0.58997463    -0.74000
O1308       O  0.81373692  0.69045285  0.53508135    -0.74700
O1309       O  0.94764699  0.82131578  0.55890844    -0.74300
O1310       O  0.91677317  0.69154422  0.58141126    -0.74900
O1311       O  0.88335912  0.77257645  0.64543838    -0.74300
O1312       O  0.76863983  0.68030953  0.59703286    -0.75000
O1313       O  0.91496331  0.73590326  0.63926130    -0.74400
O1314       O  0.79884439  0.74142472  0.61798970    -0.74900
O1315       O  0.86927867  0.82970444  0.60155667    -0.74800
O1316       O  0.86031359  0.81774442  0.55923156    -0.74600
C1317       C  0.83733962  0.71654868  0.51757715     0.77200
C1318       C  0.88717881  0.65616326  0.57353655     0.77700
C1319       C  0.97629502  0.82417577  0.57396507     0.76700
C1320       C  0.90236137  0.75479138  0.65448597     0.77000
C1321       C  0.76639524  0.70711051  0.61240109     0.78200
C1322       C  0.86201313  0.83915847  0.57907168     0.77200
Zn1323     Zn  0.86826326  0.05532809  0.86531660     1.49700
Zn1324     Zn  0.83334428  0.08895629  0.81805136     1.49400
Zn1325     Zn  0.92159373  0.14607018  0.84878978     1.49100
Zn1326     Zn  0.90605769  0.07086103  0.81190183     1.49500
O1327       O  0.88100547  0.09127401  0.83572467    -1.84000
O1328       O  0.80800953  0.01820146  0.86605153    -0.74700
O1329       O  0.85099047  0.15291691  0.81188144    -0.74500
O1330       O  0.91123585  0.15328299  0.88734989    -0.74000
O1331       O  0.77812238  0.04031739  0.83721356    -0.74700
O1332       O  0.88222327  0.08643852  0.89894056    -0.74300
O1333       O  0.91718877  0.18789189  0.82581403    -0.74900
O1334       O  0.96716647  0.10239546  0.81708565    -0.74300
O1335       O  0.82992568  0.06950460  0.77995464    -0.75000
O1336       O  0.97924779  0.15222066  0.84614632    -0.74400
O1337       O  0.89117403  0.07317697  0.77499285    -0.74900
O1338       O  0.88738656  0.01091339  0.81965839    -0.74800
O1339       O  0.88862981  0.01426863  0.86267792    -0.74600
C1340       C  0.77573143  0.01409742  0.85483905     0.77200
C1341       C  0.88715465  0.18689224  0.81291096     0.77700
C1342       C  0.89642403  0.12471845  0.90482287     0.76700
C1343       C  0.99165304  0.13193764  0.83215506     0.77000
C1344       C  0.85739990  0.06843004  0.76532326     0.78200
C1345       C  0.88616537  0.99461717  0.84174483     0.77200
Zn1346     Zn  0.92324144  0.10673754  0.61051741     1.49700
Zn1347     Zn  0.88275549  0.14666827  0.57186225     1.49400
Zn1348     Zn  0.90359224  0.07869778  0.55625902     1.49100
Zn1349     Zn  0.83117051  0.05289841  0.59706436     1.49500
O1350       O  0.88364396  0.09748415  0.58413384    -1.84000
O1351       O  0.95810126  0.16697796  0.61526669    -0.74700
O1352       O  0.89729612  0.15568022  0.53259972    -0.74500
O1353       O  0.96582102  0.10593220  0.55857922    -0.74000
O1354       O  0.93149998  0.19962701  0.59243729    -0.74700
O1355       O  0.96560428  0.09092656  0.60016401    -0.74300
O1356       O  0.88949284  0.09362428  0.52224873    -0.74900
O1357       O  0.82815029  0.99771064  0.58824944    -0.74300
O1358       O  0.81820424  0.12781087  0.57014754    -0.75000
O1359       O  0.88039454  0.01736051  0.55985588    -0.74400
O1360       O  0.78619543  0.05919566  0.57897566    -0.74900
O1361       O  0.82813685  0.05482087  0.63708355    -0.74800
O1362       O  0.89613882  0.08217969  0.64453323    -0.74600
C1363       C  0.95980664  0.20035975  0.60757533     0.77200
C1364       C  0.89267591  0.12829387  0.51565698     0.77700
C1365       C  0.98466609  0.10284199  0.57835802     0.76700
C1366       C  0.85121280  0.98929011  0.57384120     0.77000
C1367       C  0.78522299  0.09086670  0.56973649     0.78200
C1368       C  0.85856011  0.06477947  0.65275990     0.77200
C1369       C  0.92568157  0.16665142  0.97406349    -0.09100
C1370       C  0.89041817  0.13579970  0.98757074     0.07100
C1371       C  0.85525589  0.10660781  0.97337817    -0.02800
C1372       C  0.85706452  0.10599470  0.94622177    -0.07300
C1373       C  0.89359777  0.13418740  0.93259306     0.06200
C1374       C  0.92748547  0.16612448  0.94662218    -0.02300
Br1375     Br  0.97848086  0.20632971  0.92971862    -0.02000
H1376       H  0.95295502  0.18918199  0.98486531     0.10200
H1377       H  0.83037353  0.08184768  0.93572537     0.08200
Br1378     Br  0.80446846  0.06500139  0.49033536    -0.02400
C1379       C  0.82366939  0.06681709  0.69429288    -0.09100
C1380       C  0.85165205  0.05771701  0.68124523     0.07100
C1381       C  0.87690681  0.04696151  0.69611882    -0.02800
C1382       C  0.87659115  0.04906773  0.72327752    -0.07300
C1383       C  0.85123016  0.06149878  0.73656891     0.06200
C1384       C  0.82311070  0.06868291  0.72172768    -0.02300
Br1385     Br  0.78504777  0.08368447  0.73711122    -0.02000
H1386       H  0.80377070  0.07473959  0.68311631     0.10200
H1387       H  0.89721349  0.04163635  0.73404185     0.08200
Br1388     Br  0.91268491  0.02894431  0.68053288    -0.02400
C1389       C  0.83801787  0.88580021  0.59740135    -0.09100
C1390       C  0.85511105  0.87509174  0.57625038     0.07100
C1391       C  0.86622682  0.89969838  0.55334519    -0.02800
C1392       C  0.86177735  0.93505844  0.55249016    -0.07300
C1393       C  0.84659229  0.94702820  0.57409024     0.06200
C1394       C  0.83356961  0.92122807  0.59656028    -0.02300
Br1395     Br  0.81295485  0.93393228  0.62771679    -0.02000
H1396       H  0.82883045  0.86694154  0.61501330     0.10200
H1397       H  0.87201445  0.95439859  0.53508374     0.08200
Br1398     Br  0.89150712  0.88966345  0.52339961    -0.02400
C1399       C  0.88233968  0.89443569  0.86435159    -0.09100
C1400       C  0.86789457  0.86945345  0.84172538     0.07100
C1401       C  0.85812371  0.88574635  0.81960885    -0.02800
C1402       C  0.86423271  0.92630328  0.82034417    -0.07300
C1403       C  0.88013735  0.95175304  0.84264783     0.06200
C1404       C  0.88874372  0.93506615  0.86500675    -0.02300
Br1405     Br  0.91183271  0.96619683  0.89665904    -0.02000
H1406       H  0.89008873  0.88283846  0.88162308     0.10200
H1407       H  0.85669541  0.93810397  0.80308137     0.08200
Br1408     Br  0.83853800  0.85613170  0.78714432    -0.02400
C1409       C  0.82442678  0.73693705  0.97436073    -0.09100
C1410       C  0.82884669  0.70772501  0.98945596     0.07100
C1411       C  0.83525468  0.67753106  0.97672818    -0.02800
C1412       C  0.84114968  0.67961640  0.94949617    -0.07300
C1413       C  0.84079620  0.71160018  0.93477432     0.06200
C1414       C  0.82992791  0.73882825  0.94728174    -0.02300
Br1415     Br  0.82303333  0.77978167  0.92832220    -0.02000
H1416       H  0.81907151  0.76006270  0.98388487     0.10200
H1417       H  0.84891594  0.65807485  0.94011920     0.08200
Br1418     Br  0.84098000  0.63616039  0.99597948    -0.02400
C1419       C  0.90310770  0.78140373  0.72613644    -0.09100
C1420       C  0.90554358  0.74894266  0.73848015     0.07100
C1421       C  0.91083393  0.72019204  0.72307348    -0.02800
C1422       C  0.91172344  0.72349767  0.69567720    -0.07300
C1423       C  0.90762536  0.75528987  0.68329081     0.06200
C1424       C  0.90456867  0.78522465  0.69908021    -0.02300
Br1425     Br  0.90300679  0.83316255  0.68571600    -0.02000
H1426       H  0.90016444  0.80436651  0.73774025     0.10200
H1427       H  0.91394992  0.70016108  0.68406481     0.08200
Br1428     Br  0.91348215  0.67404745  0.73817901    -0.02400
C1429       C  0.09162636  0.12828592  0.55223454    -0.09100
C1430       C  0.11144640  0.12786923  0.57538819     0.07100
C1431       C  0.09098906  0.12301883  0.59943861    -0.02800
C1432       C  0.05025906  0.11609953  0.59981120    -0.07300
C1433       C  0.02905642  0.11373630  0.57652432     0.06200
C1434       C  0.05098124  0.12172639  0.55250297    -0.02300
Br1435     Br  0.02779599  0.12225594  0.51904336    -0.02000
H1436       H  0.10727566  0.13191902  0.53365913     0.10200
H1437       H  0.03468016  0.11114574  0.61852469     0.08200
Br1438     Br  0.11480068  0.12025602  0.63215894    -0.02400
C1439       C  0.02686320  0.89046637  0.55187699    -0.09100
C1440       C  0.01710131  0.86388417  0.57366358     0.07100
C1441       C  0.04336503  0.87886162  0.59582571    -0.02800
C1442       C  0.07768200  0.91965845  0.59586027    -0.07300
C1443       C  0.08624402  0.94655552  0.57445713     0.06200
C1444       C  0.06060788  0.93147163  0.55218368    -0.02300
Br1445     Br  0.06693265  0.96630801  0.52265361    -0.02000
H1446       H  0.00693828  0.87999058  0.53480786     0.10200
H1447       H  0.09734193  0.93075118  0.61303890     0.08200
Br1448     Br  0.03242357  0.84764336  0.62778129    -0.02400
C1449       C  0.06148349  0.88049154  0.82264924    -0.09100
C1450       C  0.03219436  0.87393357  0.84238173     0.07100
C1451       C  0.04165110  0.90620963  0.86045118    -0.02800
C1452       C  0.07913615  0.94419553  0.85812440    -0.07300
C1453       C  0.10800179  0.95170807  0.83779625     0.06200
C1454       C  0.09908096  0.91871734  0.82018946    -0.02300
Br1455     Br  0.13545262  0.92313096  0.79192455    -0.02000
H1456       H  0.05483449  0.85579758  0.80874204     0.10200
H1457       H  0.08489076  0.96855748  0.87207377     0.08200
Br1458     Br  0.00339083  0.90252816  0.88730174    -0.02400
C1459       C  0.28138369  0.11862201  0.97111132    -0.09100
C1460       C  0.24837347  0.08245057  0.98249129     0.07100
C1461       C  0.21815188  0.05087486  0.96652624    -0.02800
C1462       C  0.22037184  0.05629973  0.93959164    -0.07300
C1463       C  0.25177088  0.09348135  0.92811846     0.06200
C1464       C  0.28308937  0.12462525  0.94402277    -0.02300
Br1465     Br  0.32489069  0.17807599  0.93048684    -0.02000
H1466       H  0.30386147  0.14364159  0.98342486     0.10200
H1467       H  0.19609876  0.03213429  0.92761579     0.08200
Br1468     Br  0.17151780  0.00103484  0.98076568    -0.02400
C1469       C  0.24206965  0.08862166  0.71791449    -0.09100
C1470       C  0.23486261  0.11705752  0.73196259     0.07100
C1471       C  0.23058273  0.14789017  0.71790732    -0.02800
C1472       C  0.23066160  0.14749777  0.69052724    -0.07300
C1473       C  0.23483658  0.11698454  0.67683622     0.06200
C1474       C  0.24217887  0.08840177  0.69074740    -0.02300
Br1475     Br  0.25271400  0.04816425  0.67368391    -0.02000
H1476       H  0.24687931  0.06566385  0.72806832     0.10200
H1477       H  0.22521529  0.16969573  0.67993210     0.08200
Br1478     Br  0.22181272  0.18986668  0.73412387    -0.02400
C1479       C  0.08471888  0.12797435  0.85703288    -0.09100
C1480       C  0.10359225  0.12709210  0.83326549     0.07100
C1481       C  0.08960874  0.13648540  0.80984745    -0.02800
C1482       C  0.05537775  0.14261498  0.81047863    -0.07300
C1483       C  0.03460225  0.13996258  0.83388857     0.06200
C1484       C  0.05040758  0.13423727  0.85749556    -0.02300
Br1485     Br  0.02325161  0.12945689  0.89041898    -0.02000
H1486       H  0.09533844  0.12184288  0.87529948     0.10200
H1487       H  0.04323570  0.14702680  0.79225973     0.08200
Br1488     Br  0.11361610  0.14003663  0.77587556    -0.02400
C1489       C  0.04052345  0.69306555  0.89317340    -0.09100
C1490       C  0.07325143  0.73529269  0.89609698     0.07100
C1491       C  0.06496406  0.76700711  0.88826898    -0.02800
C1492       C  0.02629910  0.75636806  0.87694559    -0.07300
C1493       C  0.99442271  0.71436395  0.87278431     0.06200
C1494       C  0.00150439  0.68252241  0.88184715    -0.02300
Br1495     Br  0.96050345  0.62461705  0.87721059    -0.02000
H1496       H  0.04576186  0.66787881  0.89898275     0.10200
H1497       H  0.02166977  0.78164302  0.87043062     0.08200
Br1498     Br  0.10629062  0.82555040  0.88973396    -0.02400
C1499       C  0.26595107  0.92824416  0.63102035    -0.09100
C1500       C  0.22438574  0.89360504  0.63271282     0.07100
C1501       C  0.19284856  0.89722479  0.61945457    -0.02800
C1502       C  0.20284783  0.93417813  0.60600870    -0.07300
C1503       C  0.24361206  0.96961513  0.60581173     0.06200
C1504       C  0.27558720  0.96584548  0.61796958    -0.02300
Br1505     Br  0.33203135  0.01178083  0.61869727    -0.02000
H1506       H  0.29131978  0.92659037  0.64035273     0.10200
H1507       H  0.17751982  0.93610637  0.59674756     0.08200
Br1508     Br  0.13474471  0.85448069  0.61956704    -0.02400
C1509       C  0.26619829  0.81449534  0.77623948    -0.09100
C1510       C  0.22836964  0.79164707  0.76279017     0.07100
C1511       C  0.19074062  0.76888238  0.77696179    -0.02800
C1512       C  0.19158479  0.76740256  0.80413445    -0.07300
C1513       C  0.22961702  0.78795741  0.81772367     0.06200
C1514       C  0.26725174  0.81254485  0.80353631    -0.02300
Br1515     Br  0.32153897  0.83954154  0.81959640    -0.02000
H1516       H  0.29533859  0.83120292  0.76541337     0.10200
H1517       H  0.16238827  0.74887034  0.81463999     0.08200
Br1518     Br  0.13743164  0.73761645  0.75994431    -0.02400
C1519       C  0.18549116  0.77679402  0.52743128    -0.09100
C1520       C  0.18741474  0.74507429  0.51351211     0.07100
C1521       C  0.18500178  0.71074967  0.52717719    -0.02800
C1522       C  0.18312058  0.70989934  0.55435826    -0.07300
C1523       C  0.18357907  0.74274994  0.56824242     0.06200
C1524       C  0.18419024  0.77612677  0.55467492    -0.02300
Br1525     Br  0.18933297  0.82416870  0.57232942    -0.02000
H1526       H  0.18815356  0.80372897  0.51721703     0.10200
H1527       H  0.18272662  0.68415312  0.56477086     0.08200
Br1528     Br  0.18237590  0.66326867  0.00958230    -0.02400
C1529       C  0.18905978  0.59134517  0.64195954    -0.09100
C1530       C  0.19538998  0.61110610  0.66640300     0.07100
C1531       C  0.18776616  0.58662969  0.68926073    -0.02800
C1532       C  0.17726990  0.54467889  0.68715087    -0.07300
C1533       C  0.17450609  0.52631540  0.66272710     0.06200
C1534       C  0.17886693  0.54957067  0.63996604    -0.02300
Br1535     Br  0.17194023  0.52615906  0.60557957    -0.02000
H1536       H  0.19309001  0.60867496  0.62409114     0.10200
H1537       H  0.17410978  0.52718376  0.70482515     0.08200
Br1538     Br  0.19209429  0.60771112  0.72411525    -0.02400
C1539       C  0.07463240  0.27326588  0.62081057    -0.09100
C1540       C  0.07376874  0.29322999  0.64395746     0.07100
C1541       C  0.03424956  0.28662313  0.65268910    -0.02800
C1542       C  0.99722133  0.25968600  0.63896236    -0.07300
C1543       C  0.99821115  0.23928307  0.61609738     0.06200
C1544       C  0.03768153  0.24684699  0.60702187    -0.02300
Br1545     Br  0.04239318  0.21985620  0.57621443    -0.02000
H1546       H  0.10429002  0.27848759  0.61319763     0.10200
H1547       H  0.96726816  0.25276234  0.64706066     0.08200
Br1548     Br  0.02784934  0.31053799  0.68447648    -0.02400
C1549       C  0.26728062  0.25256376  0.88651944    -0.09100
C1550       C  0.25348617  0.24129233  0.86063315     0.07100
C1551       C  0.22724066  0.25588852  0.85023751    -0.02800
C1552       C  0.21491704  0.27942371  0.86561862    -0.07300
C1553       C  0.22854918  0.29042073  0.89138484     0.06200
C1554       C  0.25541676  0.27692421  0.90169382    -0.02300
Br1555     Br  0.27493204  0.28868547  0.93705588    -0.02000
H1556       H  0.28615125  0.24109704  0.89542474     0.10200
H1557       H  0.19565506  0.29063680  0.85693767     0.08200
Br1558     Br  0.20712916  0.24638644  0.81483045    -0.02400
C1559       C  0.20396763  0.36133292  0.56057208    -0.09100
C1560       C  0.23716764  0.39169000  0.57552399     0.07100
C1561       C  0.27341785  0.42270752  0.56271351    -0.02800
C1562       C  0.27502435  0.42478897  0.53542541    -0.07300
C1563       C  0.24078374  0.39630368  0.52048735     0.06200
C1564       C  0.20551509  0.36355413  0.53317011    -0.02300
Br1565     Br  0.15654633  0.32340032  0.01431371    -0.02000
H1566       H  0.17564210  0.33776725  0.57017398     0.10200
H1567       H  0.30218156  0.45017044  0.52588577     0.08200
Br1568     Br  0.32037475  0.46476525  0.58185026    -0.02400
C1569       C  0.15615414  0.36807585  0.81072864    -0.09100
C1570       C  0.17459911  0.40516793  0.82552754     0.07100
C1571       C  0.18859761  0.44371000  0.81247135    -0.02800
C1572       C  0.18874558  0.44523246  0.78522972    -0.07300
C1573       C  0.17369939  0.40873301  0.77028236     0.06200
C1574       C  0.15529078  0.36960891  0.78323189    -0.02300
Br1575     Br  0.13242515  0.31795076  0.76427730    -0.02000
H1576       H  0.14475846  0.33816027  0.82038683     0.10200
H1577       H  0.20188577  0.47540245  0.77559697     0.08200
Br1578     Br  0.20813954  0.49564919  0.83084788    -0.02400
C1579       C  0.23267923  0.61631115  0.89789306    -0.09100
C1580       C  0.20212189  0.61789498  0.91334403     0.07100
C1581       C  0.18060516  0.58694535  0.93244665    -0.02800
C1582       C  0.18971087  0.55484331  0.93582236    -0.07300
C1583       C  0.22038509  0.55330618  0.92042722     0.06200
C1584       C  0.24206001  0.58440934  0.90132743    -0.02300
Br1585     Br  0.28738848  0.58705658  0.88124133    -0.02000
H1586       H  0.25097394  0.64132204  0.88413826     0.10200
H1587       H  0.17238542  0.53070212  0.95026801     0.08200
Br1588     Br  0.13900411  0.58772926  0.95451748    -0.02400
C1589       C  0.38616002  0.78726649  0.89026677    -0.09100
C1590       C  0.36775241  0.78356135  0.91498868     0.07100
C1591       C  0.39111487  0.78680477  0.93764598    -0.02800
C1592       C  0.43116923  0.79240053  0.93502480    -0.07300
C1593       C  0.44799465  0.79343701  0.91036911     0.06200
C1594       C  0.42568231  0.79160753  0.88783797    -0.02300
Br1595     Br  0.44758044  0.79408313  0.85338976    -0.02000
H1596       H  0.36936117  0.78551999  0.87258852     0.10200
H1597       H  0.44810884  0.79295218  0.95240006     0.08200
Br1598     Br  0.37055884  0.78137110  0.97283943    -0.02400
C1599       C  0.69762715  0.89854922  0.86198073    -0.09100
C1600       C  0.68304678  0.89650874  0.88765466     0.07100
C1601       C  0.69516165  0.93476142  0.90069429    -0.02800
C1602       C  0.72148632  0.97342716  0.88833852    -0.07300
C1603       C  0.73631072  0.97556364  0.86272889     0.06200
C1604       C  0.72409033  0.93735894  0.84968085    -0.02300
Br1605     Br  0.74612216  0.93680702  0.81579483    -0.02000
H1606       H  0.68842017  0.86984297  0.85139611     0.10200
H1607       H  0.73264106  0.00206360  0.89945162     0.08200
Br1608     Br  0.68004893  0.93611500  0.93646594    -0.02400
C1609       C  0.41996260  0.58572808  0.89474767    -0.09100
C1610       C  0.43358159  0.60541973  0.91915073     0.07100
C1611       C  0.41746680  0.58066797  0.94203261    -0.02800
C1612       C  0.38594970  0.53855828  0.94000925    -0.07300
C1613       C  0.36987201  0.52040027  0.91562686     0.06200
C1614       C  0.38865459  0.54383280  0.89283102    -0.02300
Br1615     Br  0.37166906  0.52074867  0.85841308    -0.02000
H1616       H  0.43273362  0.60324279  0.87683359     0.10200
H1617       H  0.37177277  0.52090349  0.95770719     0.08200
Br1618     Br  0.43542879  0.60167570  0.97674471    -0.02400
C1619       C  0.37991872  0.56323702  0.68672067    -0.09100
C1620       C  0.35104552  0.55424040  0.66652550     0.07100
C1621       C  0.36330491  0.58061764  0.64432372    -0.02800
C1622       C  0.40364121  0.61545652  0.64294613    -0.07300
C1623       C  0.43182802  0.62490534  0.66350068     0.06200
C1624       C  0.42002156  0.59826497  0.68535794    -0.02300
Br1625     Br  0.45786653  0.60807725  0.71357582    -0.02000
H1626       H  0.37135885  0.54285053  0.70361260     0.10200
H1627       H  0.41223499  0.63658589  0.62642706     0.08200
Br1628     Br  0.32561104  0.57350093  0.61644064    -0.02400
C1629       C  0.66218462  0.70463483  0.61911806    -0.09100
C1630       C  0.66856651  0.72723603  0.64273532     0.07100
C1631       C  0.70286928  0.73387872  0.65826493    -0.02800
C1632       C  0.73111956  0.72158349  0.64919539    -0.07300
C1633       C  0.72706069  0.70272571  0.62446737     0.06200
C1634       C  0.69084141  0.69259009  0.60998635    -0.02300
Br1635     Br  0.68078755  0.66539082  0.57674743    -0.02000
H1636       H  0.63548076  0.69761566  0.60700812     0.10200
H1637       H  0.75832547  0.72934841  0.66103674     0.08200
Br1638     Br  0.71331788  0.75949448  0.69212442    -0.02400
C1639       C  0.60496418  0.76030578  0.77647970    -0.09100
C1640       C  0.56603036  0.74157350  0.76368294     0.07100
C1641       C  0.52908739  0.71826962  0.77852105    -0.02800
C1642       C  0.53152936  0.71634121  0.80550068    -0.07300
C1643       C  0.57003164  0.73767523  0.81855539     0.06200
C1644       C  0.60727411  0.75877663  0.80374343    -0.02300
Br1645     Br  0.66162214  0.78945292  0.81942083    -0.02000
H1646       H  0.63366357  0.77833179  0.76541935     0.10200
H1647       H  0.50262559  0.69908478  0.81650769     0.08200
Br1648     Br  0.47381165  0.68879741  0.76377660    -0.02400
C1649       C  0.60274001  0.82144101  0.55405071    -0.09100
C1650       C  0.56515452  0.79988812  0.56821895     0.07100
C1651       C  0.52674672  0.78097903  0.55491008    -0.02800
C1652       C  0.52633939  0.78028550  0.52772067    -0.07300
C1653       C  0.56384996  0.79882498  0.51340086     0.06200
C1654       C  0.60231853  0.82112836  0.52664818    -0.02300
Br1655     Br  0.65396426  0.84800993  0.00822851    -0.02000
H1656       H  0.63240906  0.83638513  0.56423720     0.10200
H1657       H  0.49656662  0.76365907  0.51769304     0.08200
Br1658     Br  0.47403668  0.75479862  0.57314263    -0.02400
C1659       C  0.38601070  0.81482756  0.68481361    -0.09100
C1660       C  0.36502891  0.80542739  0.66081700     0.07100
C1661       C  0.38388821  0.79931492  0.63859437    -0.02800
C1662       C  0.42105783  0.79867509  0.64112951    -0.07300
C1663       C  0.44010244  0.80406169  0.66557298     0.06200
C1664       C  0.42341978  0.81427605  0.68735776    -0.02300
Br1665     Br  0.45033845  0.82838013  0.72079413    -0.02000
H1666       H  0.37220108  0.82042896  0.70193432     0.10200
H1667       H  0.43411426  0.79209709  0.62401452     0.08200
Br1668     Br  0.36012919  0.79124371  0.60429367    -0.02400
C1669       C  0.90696553  0.56488254  0.55932706    -0.09100
C1670       C  0.93031204  0.57814171  0.53583986     0.07100
C1671       C  0.93868126  0.61688057  0.52523231    -0.02800
C1672       C  0.92459451  0.64140790  0.53797230    -0.07300
C1673       C  0.89996754  0.62750700  0.56085732     0.06200
C1674       C  0.89165767  0.58892425  0.57165406    -0.02300
Br1675     Br  0.85952249  0.56798819  0.60312664    -0.02000
H1676       H  0.89853334  0.53449847  0.56737881     0.10200
H1677       H  0.93198248  0.67122702  0.52946501     0.08200
Br1678     Br  0.96751000  0.63664281  0.99243936    -0.02400
C1679       C  0.04741302  0.41584987  0.99097217    -0.09100
C1680       C  0.01720115  0.41290306  0.97324429     0.07100
C1681       C  0.01613396  0.39532555  0.94826206    -0.02800
C1682       C  0.04553330  0.38329201  0.94121985    -0.07300
C1683       C  0.07661804  0.38766689  0.95859189     0.06200
C1684       C  0.07631905  0.40304266  0.98407537    -0.02300
Br1685     Br  0.11470644  0.40690863  0.01066068    -0.02000
H1686       H  0.04869976  0.42851114  0.51036262     0.10200
H1687       H  0.04555630  0.37278370  0.92146574     0.08200
Br1688     Br  0.97727693  0.38942673  0.92168461    -0.02400
C1689       C  0.87895757  0.26682804  0.76823632    -0.09100
C1690       C  0.91804836  0.30356939  0.77188427     0.07100
C1691       C  0.94726188  0.30099607  0.78808532    -0.02800
C1692       C  0.93658677  0.26297266  0.80087637    -0.07300
C1693       C  0.89643522  0.22648180  0.79836124     0.06200
C1694       C  0.86787011  0.22899835  0.78114313    -0.02300
Br1695     Br  0.81229571  0.18327729  0.77486244    -0.02000
H1696       H  0.85552446  0.26830883  0.75633213     0.10200
H1697       H  0.95981321  0.26251877  0.81347567     0.08200
Br1698     Br  0.00076875  0.34940319  0.79485697    -0.02400
C1699       C  0.00877633  0.59519515  0.71714749    -0.09100
C1700       C  0.01380747  0.55964004  0.71463014     0.07100
C1701       C  0.04574652  0.56318758  0.69767432    -0.02800
C1702       C  0.07233697  0.60142085  0.68515417    -0.07300
C1703       C  0.06866801  0.63731415  0.68888170     0.06200
C1704       C  0.03575692  0.63353497  0.70459186    -0.02300
Br1705     Br  0.02826864  0.68054100  0.71078818    -0.02000
H1706       H  0.98415408  0.59368055  0.72945576     0.10200
H1707       H  0.09798662  0.60387861  0.67341971     0.08200
Br1708     Br  0.05602290  0.51799873  0.69066866    -0.02400
C1709       C  0.89650835  0.48693108  0.85565351    -0.09100
C1710       C  0.91250433  0.46437470  0.84280187     0.07100
C1711       C  0.93117361  0.44593784  0.85742038    -0.02800
C1712       C  0.93127229  0.44801715  0.88452019    -0.07300
C1713       C  0.91242240  0.46756165  0.89766652     0.06200
C1714       C  0.89592899  0.48832533  0.88301754    -0.02300
Br1715     Br  0.86711778  0.51373630  0.89904611    -0.02000
H1716       H  0.88150142  0.50062931  0.84450133     0.10200
H1717       H  0.94457441  0.43259118  0.89545981     0.08200
Br1718     Br  0.95510541  0.41563894  0.84137334    -0.02400
C1719       C  0.94567799  0.43798197  0.63678541    -0.09100
C1720       C  0.90812040  0.40813589  0.64876984     0.07100
C1721       C  0.87304039  0.38288354  0.63308767    -0.02800
C1722       C  0.87510597  0.38942953  0.60622753    -0.07300
C1723       C  0.91161329  0.42109282  0.59426187     0.06200
C1724       C  0.94768886  0.44486283  0.60972390    -0.02300
Br1725     Br  0.99902522  0.48998922  0.59584038    -0.02000
H1726       H  0.97270683  0.45789228  0.64868161     0.10200
H1727       H  0.84740280  0.37019773  0.59467907     0.08200
Br1728     Br  0.82098329  0.33918014  0.64724082    -0.02400
C1729       C  0.71134342  0.59649781  0.82011484    -0.09100
C1730       C  0.74529129  0.62714683  0.80546390     0.07100
C1731       C  0.73816685  0.63163266  0.77880823    -0.02800
C1732       C  0.69855149  0.60646146  0.76752975    -0.07300
C1733       C  0.66436046  0.57571510  0.78195826     0.06200
C1734       C  0.67148190  0.57081439  0.80861537    -0.02300
Br1735     Br  0.62907550  0.52705163  0.82965961    -0.02000
H1736       H  0.71570929  0.59256534  0.84059643     0.10200
H1737       H  0.69490641  0.60983255  0.74684305     0.08200
Br1738     Br  0.78251661  0.66999898  0.75608284    -0.02400
C1739       C  0.39136946  0.38660636  0.70125753    -0.09100
C1740       C  0.40858457  0.40826585  0.72496116     0.07100
C1741       C  0.38268528  0.41704611  0.74083323    -0.02800
C1742       C  0.34214349  0.40617479  0.73246714    -0.07300
C1743       C  0.32571289  0.38669145  0.70808253     0.06200
C1744       C  0.35089511  0.37620908  0.69271107    -0.02300
Br1745     Br  0.33338872  0.35106562  0.65892953    -0.02000
H1746       H  0.41014275  0.37881982  0.68871256     0.10200
H1747       H  0.32372000  0.41457977  0.74490209     0.08200
Br1748     Br  0.40029648  0.44287836  0.77446535    -0.02400
C1749       C  0.77379372  0.47953675  0.76121544    -0.09100
C1750       C  0.78267831  0.46322111  0.73887851     0.07100
C1751       C  0.75424043  0.44922382  0.71784030    -0.02800
C1752       C  0.71630174  0.44826339  0.72038308    -0.07300
C1753       C  0.70591377  0.46142214  0.74345293     0.06200
C1754       C  0.73577213  0.47897135  0.76359832    -0.02300
Br1755     Br  0.72718464  0.50391598  0.79418621    -0.02000
H1756       H  0.79569996  0.49125572  0.77730610     0.10200
H1757       H  0.69424648  0.43598823  0.70437651     0.08200
Br1758     Br  0.76495138  0.43116289  0.68491769    -0.02400
C1759       C  0.39746629  0.26812701  0.51691042    -0.09100
C1760       C  0.39709352  0.30530240  0.52270500     0.07100
C1761       C  0.36862789  0.30319724  0.54179344    -0.02800
C1762       C  0.34223347  0.26506305  0.55487957    -0.07300
C1763       C  0.34391618  0.22811351  0.54992079     0.06200
C1764       C  0.37184169  0.23023676  0.53017166    -0.02300
Br1765     Br  0.37766828  0.18326870  0.52017983    -0.02000
H1766       H  0.42072513  0.26931986  0.00322831     0.10200
H1767       H  0.32087104  0.26472117  0.56954719     0.08200
Br1768     Br  0.36675614  0.35222941  0.55180566    -0.02400
C1769       C  0.71169443  0.46592435  0.51343018    -0.09100
C1770       C  0.69251036  0.45965442  0.98885552     0.07100
C1771       C  0.71219050  0.45454912  0.96670367    -0.02800
C1772       C  0.74935870  0.45381843  0.96953960    -0.07300
C1773       C  0.76748982  0.45771651  0.49434152     0.06200
C1774       C  0.74868375  0.46477317  0.51636707    -0.02300
Br1775     Br  0.77165760  0.47371959  0.55093707    -0.02000
H1776       H  0.69683178  0.46995184  0.53059476     0.10200
H1777       H  0.76366342  0.44922326  0.95229991     0.08200
Br1778     Br  0.69016979  0.44911024  0.93207770    -0.02400
C1779       C  0.55422057  0.60509645  0.93276617    -0.09100
C1780       C  0.58878062  0.64184327  0.94263929     0.07100
C1781       C  0.61013709  0.63795466  0.96411118    -0.02800
C1782       C  0.59703983  0.59831526  0.97518075    -0.07300
C1783       C  0.56149023  0.56149667  0.96590983     0.06200
C1784       C  0.54036887  0.56550415  0.94411472    -0.02300
Br1785     Br  0.49223582  0.51869215  0.92884693    -0.02000
H1786       H  0.53605006  0.60759694  0.91702887     0.10200
H1787       H  0.61389421  0.59689131  0.49244324     0.08200
Br1788     Br  0.65558829  0.68646790  0.98000177    -0.02400
C1789       C  0.60298754  0.47896727  0.60495302    -0.09100
C1790       C  0.56467466  0.46159603  0.59184403     0.07100
C1791       C  0.52733406  0.44691946  0.60622970    -0.02800
C1792       C  0.52835479  0.44664354  0.63347040    -0.07300
C1793       C  0.56637350  0.46131603  0.64669933     0.06200
C1794       C  0.60414284  0.47890906  0.63226329    -0.02300
Br1795     Br  0.65750891  0.49805421  0.64849333    -0.02000
H1796       H  0.63175105  0.48976204  0.59396001     0.10200
H1797       H  0.49923499  0.43379237  0.64434574     0.08200
Br1798     Br  0.47416002  0.42579849  0.58934672    -0.02400
C1799       C  0.50463292  0.43517645  0.88531371    -0.09100
C1800       C  0.50941381  0.40391983  0.89751195     0.07100
C1801       C  0.51667381  0.37657818  0.88209949    -0.02800
C1802       C  0.52228286  0.38288673  0.85519498    -0.07300
C1803       C  0.52077210  0.41620709  0.84310054     0.06200
C1804       C  0.51051206  0.44179777  0.85833550    -0.02300
Br1805     Br  0.50921378  0.48943323  0.84442614    -0.02000
H1806       H  0.49950025  0.45655487  0.89703058     0.10200
H1807       H  0.52913326  0.36232982  0.84377208     0.08200
Br1808     Br  0.52012545  0.33062938  0.89694461    -0.02400
C1809       C  0.41598891  0.09763188  0.78528074    -0.09100
C1810       C  0.40602033  0.05532247  0.78287888     0.07100
C1811       C  0.36867875  0.02460631  0.79483093    -0.02800
C1812       C  0.34134867  0.03616000  0.80690713    -0.07300
C1813       C  0.35050787  0.07840748  0.80810818     0.06200
C1814       C  0.38923608  0.10928393  0.79762821    -0.02300
Br1815     Br  0.40625089  0.16772428  0.79738224    -0.02000
H1816       H  0.44492951  0.12234404  0.77693601     0.10200
H1817       H  0.31198437  0.01156373  0.81485585     0.08200
Br1818     Br  0.35215728  0.96645176  0.79366712    -0.02400
C1819       C  0.74867831  0.25402022  0.72981261    -0.09100
C1820       C  0.75729264  0.28007715  0.75175529     0.07100
C1821       C  0.73096112  0.26409193  0.77387471    -0.02800
C1822       C  0.69639814  0.22377542  0.77318547    -0.07300
C1823       C  0.68622437  0.19861746  0.75069175     0.06200
C1824       C  0.71363789  0.21377272  0.72900856    -0.02300
Br1825     Br  0.70490489  0.18293802  0.69714157    -0.02000
H1826       H  0.76895391  0.26520850  0.71281486     0.10200
H1827       H  0.67628621  0.21277674  0.79026272     0.08200
Br1828     Br  0.73761552  0.29546585  0.80528071    -0.02400
C1829       C  0.56102152  0.92241991  0.73936812    -0.09100
C1830       C  0.57629551  0.96205013  0.72766008     0.07100
C1831       C  0.60808265  0.97379453  0.70805716    -0.02800
C1832       C  0.62048077  0.94554616  0.69940252    -0.07300
C1833       C  0.60383437  0.90549681  0.71011253     0.06200
C1834       C  0.57502280  0.89477648  0.73110517    -0.02300
Br1835     Br  0.55248424  0.84170779  0.74832849    -0.02000
H1836       H  0.53805641  0.91276732  0.75492696     0.10200
H1837       H  0.64184091  0.95420145  0.68296223     0.08200
Br1838     Br  0.63527828  0.02686728  0.69007710    -0.02400
C1839       C  0.53270756  0.23233048  0.76897933    -0.09100
C1840       C  0.53154142  0.21204828  0.74551470     0.07100
C1841       C  0.52953121  0.23056567  0.72163735    -0.02800
C1842       C  0.52946409  0.26851250  0.72189077    -0.07300
C1843       C  0.53195896  0.28912024  0.74537995     0.06200
C1844       C  0.53301638  0.27026722  0.76913908    -0.02300
Br1845     Br  0.53358163  0.29377827  0.80276150    -0.02000
H1846       H  0.53356183  0.21876575  0.78754776     0.10200
H1847       H  0.52898574  0.28277722  0.70351047     0.08200
Br1848     Br  0.52803834  0.20742424  0.68772003    -0.02400
C1849       C  0.70765441  0.04374480  0.56109137    -0.09100
C1850       C  0.74486191  0.08279778  0.55706791     0.07100
C1851       C  0.74307566  0.11051011  0.53876349    -0.02800
C1852       C  0.70564582  0.09915008  0.52549411    -0.07300
C1853       C  0.66848054  0.06014571  0.52937337     0.06200
C1854       C  0.67004163  0.03239382  0.54763346    -0.02300
Br1855     Br  0.62276242  0.97781321  0.55404267    -0.02000
H1856       H  0.70781192  0.02127810  0.57459607     0.10200
H1857       H  0.70586208  0.12178763  0.51195812     0.08200
Br1858     Br  0.79060841  0.16376624  0.52944591    -0.02400
C1859       C  0.50993569  0.21019818  0.51701191    -0.09100
C1860       C  0.51724490  0.19551050  0.99330732     0.07100
C1861       C  0.52671633  0.22004307  0.97061551    -0.02800
C1862       C  0.53154485  0.25992258  0.97221795    -0.07300
C1863       C  0.52743610  0.27613513  0.49638946     0.06200
C1864       C  0.51420192  0.24986462  0.51860514    -0.02300
Br1865     Br  0.50088662  0.26535997  0.55155774    -0.02000
H1866       H  0.50204587  0.19109200  0.53448276     0.10200
H1867       H  0.54076216  0.27914850  0.95476886     0.08200
Br1868     Br  0.53838071  0.20298678  0.93770931    -0.02400
C1869       C  0.36342826  0.88729829  0.95692311    -0.09100
C1870       C  0.33030548  0.89577828  0.95392316     0.07100
C1871       C  0.33551530  0.93297050  0.96500250    -0.02800
C1872       C  0.37374467  0.96147216  0.97720007    -0.07300
C1873       C  0.40771105  0.95386601  0.97906130     0.06200
C1874       C  0.40138588  0.91542612  0.96923842    -0.02300
Br1875     Br  0.44456720  0.90099244  0.96961684    -0.02000
H1876       H  0.36024326  0.85867633  0.94893321     0.10200
H1877       H  0.37747112  0.99072160  0.98443882     0.08200
Br1878     Br  0.29313888  0.94808737  0.96185823    -0.02400
C1879       C  0.53109497  0.03573055  0.60863912    -0.09100
C1880       C  0.52486920  0.06481582  0.59470278     0.07100
C1881       C  0.51407564  0.09127368  0.60828532    -0.02800
C1882       C  0.51211595  0.08992749  0.63553314    -0.07300
C1883       C  0.52158342  0.06310799  0.64950967     0.06200
C1884       C  0.52987649  0.03494320  0.63588838    -0.02300
Br1885     Br  0.53939610  0.99470337  0.65350044    -0.02000
H1886       H  0.53899754  0.01495312  0.59836022     0.10200
H1887       H  0.50523706  0.11140166  0.64587189     0.08200
Br1888     Br  0.50190342  0.12979855  0.59066852    -0.02400
C1889       C  0.58421790  0.07396146  0.85577408    -0.09100
C1890       C  0.54444036  0.05109288  0.84462272     0.07100
C1891       C  0.50909707  0.02849007  0.86068355    -0.02800
C1892       C  0.51366554  0.03207860  0.88776803    -0.07300
C1893       C  0.55323123  0.05744479  0.89905928     0.06200
C1894       C  0.58903576  0.07695401  0.88281189    -0.02300
Br1895     Br  0.64475941  0.11218460  0.89582013    -0.02000
H1896       H  0.61146170  0.09133515  0.84335178     0.10200
H1897       H  0.48598069  0.01644910  0.90002356     0.08200
Br1898     Br  0.45367378  0.99626484  0.84659052    -0.02400
C1899       C  0.72119175  0.23215086  0.51763130    -0.09100
C1900       C  0.69952860  0.21629344  0.49404442     0.07100
C1901       C  0.71939734  0.23704863  0.97032341    -0.02800
C1902       C  0.75863929  0.27368700  0.97107568    -0.07300
C1903       C  0.77861654  0.29068915  0.99485800     0.06200
C1904       C  0.76017975  0.26888960  0.51825046    -0.02300
Br1905     Br  0.78700134  0.28717886  0.55162096    -0.02000
H1906       H  0.70765493  0.21608225  0.53587275     0.10200
H1907       H  0.77251994  0.29028355  0.95302095     0.08200
Br1908     Br  0.69435762  0.21975274  0.93643421    -0.02400
loop_ 
_geom_bond_atom_site_label_1 
_geom_bond_atom_site_label_2 
_geom_bond_distance 
_geom_bond_site_symmetry_2 
_ccdc_geom_bond_type 
Zn1           O6   1.997       .  S
Zn1          O10   2.013       .  S
Zn1          O17   2.022       .  S
Zn1         O959   1.904       .  S
Zn2           O7   2.139       .  S
Zn2           O9   2.153   1_544  S
Zn2          O13   2.018       .  S
Zn2           O5   1.921   1_554  S
Zn3           O8   1.990       .  S
Zn3          O11   1.962       .  S
Zn3          O14   1.997       .  S
Zn3         O959   1.901       .  S
Zn4          O12   2.031       .  S
Zn4          O15   1.997       .  S
Zn4          O16   1.970       .  S
Zn4           O5   1.904   1_554  S
O5         Zn955   1.904       .  S
O5         Zn957   1.901       .  S
O6           C18   1.275   1_545  A
O7           C19   1.290       .  A
O8           C20   1.272       .  A
O9          C972   1.297       .  A
O10          C20   1.275       .  A
O11         C973   1.269       .  A
O12          C21   1.277   1_554  A
O13          C22   1.275       .  A
O14         C975   1.271       .  A
O15          C22   1.273       .  A
O16         C977   1.270   1_554  A
O17          C23   1.275       .  A
C18         O963   1.297       .  A
C18         C919   1.512       .  S
C19         O965   1.269   1_554  A
C19         C899   1.514       .  S
C20         C939   1.471       .  S
C21         O968   1.271       .  A
C21         C946   1.487       .  S
C22         C926   1.469       .  S
C23         O970   1.270       .  A
C23         C906   1.462       .  S
Zn24         O29   1.976       .  S
Zn24         O33   2.022       .  S
Zn24         O40   2.027       .  S
Zn24         O28   1.880       .  S
Zn25         O30   2.009       .  S
Zn25         O32   2.199   1_545  S
Zn25         O36   2.175       .  S
Zn25         O28   1.925       .  S
Zn26         O31   1.964       .  S
Zn26         O34   1.991       .  S
Zn26         O37   2.033       .  S
Zn26         O28   1.898       .  S
Zn27         O35   1.989       .  S
Zn27         O38   1.960       .  S
Zn27         O39   1.987       .  S
Zn27         O28   1.888       .  S
O29          C41   1.270   1_545  A
O30          C42   1.273       .  A
O31          C43   1.270       .  A
O32          C41   1.303       .  A
O33          C43   1.274       .  A
O34          C42   1.273       .  A
O35          C44   1.268       .  A
O36          C45   1.296       .  A
O37          C44   1.278       .  A
O38          C45   1.270       .  A
O39          C46   1.273       .  A
O40          C46   1.277       .  A
C41         C876   1.522       .  S
C42         C936   1.460       .  S
C43         C869   1.481       .  S
C44         C886   1.490       .  S
C45         C856   1.516       .  S
C46         C929   1.467       .  S
Zn47         O52   2.022       .  S
Zn47         O56   2.033       .  S
Zn47         O63   1.994   1_554  S
Zn47       O1005   1.912   1_554  S
Zn48         O53   1.978       .  S
Zn48         O55   1.984       .  S
Zn48         O59   1.959       .  S
Zn48         O51   1.893       .  S
Zn49         O54   1.984       .  S
Zn49         O57   2.008       .  S
Zn49         O60   1.922       .  S
Zn49       O1005   1.903   1_554  S
Zn50         O58   2.174       .  S
Zn50         O61   2.059       .  S
Zn50         O62   2.136       .  S
Zn50         O51   1.948       .  S
O51       Zn1001   1.913       .  S
O51       Zn1003   1.904       .  S
O52        C1018   1.276   1_554  A
O53        C1019   1.269       .  A
O54          C66   1.271       .  A
O55          C64   1.271       .  A
O56          C66   1.274       .  A
O57          C65   1.273   1_554  A
O58        C1021   1.295       .  A
O59          C68   1.268       .  A
O60          C67   1.263       .  A
O61          C68   1.278       .  A
O62          C69   1.295       .  A
O63        C1023   1.276       .  A
C64        O1006   1.276       .  A
C64         C816   1.470       .  S
C65        O1007   1.268       .  A
C65         C909   1.475       .  S
C66         C836   1.466       .  S
C67        O1012   1.295   1_554  A
C67         C806   1.493       .  S
C68         C846   1.472       .  S
C69        O1017   1.276       .  A
C69         C829   1.508       .  S
Zn70         O75   2.056       .  S
Zn70         O79   2.035       .  S
Zn70         O86   2.014       .  S
Zn70         O74   1.912       .  S
Zn71         O76   2.025       .  S
Zn71         O78   1.981       .  S
Zn71         O82   2.010       .  S
Zn71         O74   1.912       .  S
Zn72         O77   1.992       .  S
Zn72         O80   1.971       .  S
Zn72         O83   1.972       .  S
Zn72         O74   1.903       .  S
Zn73         O81   2.149       .  S
Zn73         O84   2.015       .  S
Zn73         O85   2.151       .  S
Zn73         O74   1.915       .  S
O75          C87   1.280       .  A
O76          C88   1.274       .  A
O77          C89   1.272       .  A
O78          C87   1.271       .  A
O79          C89   1.278       .  A
O80          C88   1.270       .  A
O81          C90   1.292       .  A
O82          C91   1.275       .  A
O83          C90   1.270       .  A
O84          C91   1.273       .  A
O85          C92   1.298       .  A
O86          C92   1.278       .  A
C87         C889   1.480       .  S
C88         C799   1.470       .  S
C89         C839   1.473       .  S
C90         C779   1.509       .  S
C91         C849   1.480       .  S
C92         C786   1.513       .  S
Zn93         O98   2.117       .  S
Zn93        O102   2.056       .  S
Zn93        O109   2.169       .  S
Zn93         O97   1.944       .  S
Zn94         O99   2.022       .  S
Zn94        O101   1.991       .  S
Zn94        O105   2.031       .  S
Zn94         O97   1.919       .  S
Zn95        O100   1.964       .  S
Zn95        O103   1.966       .  S
Zn95        O106   1.989       .  S
Zn95         O97   1.885       .  S
Zn96        O104   1.996       .  S
Zn96        O107   1.977       .  S
Zn96        O108   1.933       .  S
Zn96         O97   1.890       .  S
O98         C110   1.293       .  A
O99         C111   1.275       .  A
O100        C112   1.268       .  A
O101        C110   1.276       .  A
O102        C112   1.277       .  A
O103        C111   1.269       .  A
O104        C113   1.271       .  A
O105        C114   1.274       .  A
O106        C113   1.270       .  A
O107        C114   1.270       .  A
O108        C115   1.264       .  A
O109        C115   1.295       .  A
C110        C746   1.509   1_655  S
C111        C796   1.472       .  S
C112        C766   1.475       .  S
C113        C866   1.479       .  S
C114        C756   1.465       .  S
C115        C736   1.495       .  S
Zn116       O121   2.019       .  S
Zn116       O125   2.040       .  S
Zn116       O132   2.001       .  S
Zn116       O120   1.905       .  S
Zn117       O122   1.983       .  S
Zn117       O124   2.000       .  S
Zn117       O128   1.982       .  S
Zn117       O120   1.916       .  S
Zn118       O123   1.984       .  S
Zn118       O126   2.021       .  S
Zn118       O129   2.001       .  S
Zn118      O1074   1.911   1_554  S
Zn119       O127   2.025       .  S
Zn119       O130   2.145       .  S
Zn119       O131   2.164   1_554  S
Zn119      O1074   1.928   1_554  S
O120      Zn1072   1.910       .  S
O120      Zn1073   1.927       .  S
O121        C133   1.277       .  A
O122       C1088   1.271       .  A
O123       C1089   1.270   1_554  A
O124        C133   1.273       .  A
O125        C135   1.278       .  A
O126        C134   1.274   1_554  A
O127        C136   1.274       .  A
O128       C1091   1.270       .  A
O129        C136   1.275       .  A
O130        C137   1.292       .  A
O131       C1092   1.299       .  A
O132        C138   1.274       .  A
C133        C759   1.474       .  S
C134       O1076   1.271       .  A
C134        C819   1.478       .  S
C135       O1077   1.270       .  A
C135        C949   1.476       .  S
C136        C769   1.482       .  S
C137       O1082   1.270   1_554  A
C137        C716   1.503       .  S
C138       O1085   1.298       .  A
C138        C726   1.512   1_655  S
Zn139       O144   2.143       .  S
Zn139       O148   2.015       .  S
Zn139       O155   2.139       .  S
Zn139       O143   1.919       .  S
Zn140       O145   2.031       .  S
Zn140       O147   2.025       .  S
Zn140       O151   2.028       .  S
Zn140       O143   1.906       .  S
Zn141       O146   1.988       .  S
Zn141       O149   1.978       .  S
Zn141       O152   2.022       .  S
Zn141       O143   1.911       .  S
Zn142       O150   1.985       .  S
Zn142       O153   2.007       .  S
Zn142       O154   1.970       .  S
Zn142       O143   1.911       .  S
O144        C156   1.297       .  A
O145        C157   1.276       .  A
O146        C158   1.271       .  A
O147        C156   1.278       .  A
O148        C158   1.273       .  A
O149        C157   1.270       .  A
O150        C159   1.271       .  A
O151        C160   1.277       .  A
O152        C159   1.273       .  A
O153        C160   1.273       .  A
O154        C161   1.270       .  A
O155        C161   1.290       .  A
C156        C676   1.518       .  S
C157        C669   1.462       .  S
C158        C686   1.478       .  S
C159        C709   1.474       .  S
C160        C696   1.467       .  S
C161        C879   1.500       .  S
Zn162       O167   2.035       .  S
Zn162       O171   2.015       .  S
Zn162       O178   1.999       .  S
Zn162       O166   1.915       .  S
Zn163       O168   2.015       .  S
Zn163       O170   1.988       .  S
Zn163       O174   1.943       .  S
Zn163       O166   1.917       .  S
Zn164       O169   1.962       .  S
Zn164       O172   1.994       .  S
Zn164       O175   1.945       .  S
Zn164       O166   1.885       .  S
Zn165       O173   2.056       .  S
Zn165       O176   2.148       .  S
Zn165       O177   2.134       .  S
Zn165       O166   1.946       .  S
O167        C179   1.275       .  A
O168        C180   1.270       .  A
O169        C181   1.269       .  A
O170        C179   1.272       .  A
O171        C181   1.274       .  A
O172        C180   1.270       .  A
O173        C182   1.276       .  A
O174        C183   1.266       .  A
O175        C182   1.267       .  A
O176        C183   1.294       .  A
O177        C184   1.294       .  A
O178        C184   1.275       .  A
C179       C1653   1.469       .  S
C180        C656   1.487       .  S
C181        C639   1.455       .  S
C182        C689   1.478       .  S
C183        C826   1.487       .  S
C184        C646   1.501       .  S
Zn185       O190   1.998       .  S
Zn185       O194   2.039       .  S
Zn185       O201   2.046       .  S
Zn185       O189   1.924       .  S
Zn186       O191   2.176       .  S
Zn186       O193   2.142       .  S
Zn186       O197   2.091       .  S
Zn186       O189   1.950       .  S
Zn187       O192   2.019       .  S
Zn187       O195   1.936       .  S
Zn187       O198   2.015       .  S
Zn187       O189   1.921       .  S
Zn188       O196   1.975       .  S
Zn188       O199   1.977       .  S
Zn188       O200   1.962       .  S
Zn188       O189   1.900       .  S
O190        C202   1.276       .  A
O191        C203   1.297       .  A
O192        C204   1.273       .  A
O193        C202   1.297       .  A
O194        C204   1.274       .  A
O195        C203   1.264       .  A
O196        C205   1.268       .  A
O197        C206   1.280       .  A
O198        C205   1.275       .  A
O199        C206   1.270       .  A
O200        C207   1.269       .  A
O201        C207   1.278       .  A
C202        C599   1.501       .  S
C203        C729   1.504       .  S
C204       C1563   1.475       .  S
C205        C629   1.467       .  S
C206        C616   1.486       .  S
C207        C659   1.473       .  S
Zn208       O213   1.952       .  S
Zn208       O217   2.021       .  S
Zn208       O224   2.013       .  S
Zn208       O212   1.915       .  S
Zn209       O214   2.142       .  S
Zn209       O216   2.182       .  S
Zn209       O220   2.074       .  S
Zn209       O212   1.947       .  S
Zn210       O215   2.049       .  S
Zn210       O218   1.990       .  S
Zn210       O221   2.036       .  S
Zn210       O212   1.918       .  S
Zn211       O219   1.978       .  S
Zn211       O222   1.979       .  S
Zn211       O223   1.982       .  S
Zn211       O212   1.907       .  S
O213        C225   1.268       .  A
O214        C226   1.297       .  A
O215        C227   1.275       .  A
O216        C225   1.298       .  A
O217        C227   1.274       .  A
O218        C226   1.275       .  A
O219        C228   1.270       .  A
O220        C229   1.278       .  A
O221        C228   1.277       .  A
O222        C229   1.270       .  A
O223        C230   1.269       .  A
O224        C230   1.275       .  A
C225        C789   1.512       .  S
C226        C586   1.504       .  S
C227        C619   1.482       .  S
C228        C579   1.473       .  S
C229        C606   1.476       .  S
C230        C666   1.472       .  S
Zn231       O236   1.978       .  S
Zn231       O240   1.965       .  S
Zn231       O247   2.000       .  S
Zn231       O235   1.888       .  S
Zn232       O237   2.020       .  S
Zn232       O239   2.024       .  S
Zn232       O243   2.050       .  S
Zn232       O235   1.919       .  S
Zn233       O238   2.029       .  S
Zn233       O241   2.110       .  S
Zn233       O244   2.149       .  S
Zn233       O235   1.940       .  S
Zn234       O242   1.922       .  S
Zn234       O245   1.968       .  S
Zn234       O246   2.006       .  S
Zn234       O235   1.896       .  S
O236        C248   1.272       .  A
O237        C249   1.278       .  A
O238        C250   1.274       .  A
O239        C248   1.276       .  A
O240        C250   1.269       .  A
O241        C249   1.292       .  A
O242        C251   1.263       .  A
O243        C252   1.278       .  A
O244        C251   1.292       .  A
O245        C252   1.270       .  A
O246        C253   1.271       .  A
O247        C253   1.270       .  A
C248        C706   1.468       .  S
C249        C546   1.515       .  S
C250        C569   1.460       .  S
C251        C749   1.489       .  S
C252        C556   1.468       .  S
C253        C576   1.487       .  S
Zn254       O259   1.991       .  S
Zn254       O263   1.974       .  S
Zn254       O270   1.967       .  S
Zn254       O258   1.890       .  S
Zn255       O260   2.054       .  S
Zn255       O262   2.039       .  S
Zn255       O266   2.020       .  S
Zn255       O258   1.899       .  S
Zn256       O261   1.999       .  S
Zn256       O264   1.957       .  S
Zn256       O267   1.976       .  S
Zn256       O258   1.895       .  S
Zn257       O265   2.018       .  S
Zn257       O268   2.138       .  S
Zn257       O269   2.151       .  S
Zn257       O258   1.910       .  S
O259        C271   1.272       .  A
O260        C272   1.279       .  A
O261        C273   1.270       .  A
O262        C271   1.279       .  A
O263        C273   1.271       .  A
O264        C272   1.267       .  A
O265        C274   1.274       .  A
O266        C275   1.280       .  A
O267        C274   1.270       .  A
O268        C275   1.298       .  A
O269        C276   1.292       .  A
O270        C276   1.269       .  A
C271        C559   1.481       .  S
C272        C626   1.460       .  S
C273        C636   1.476       .  S
C274       C1520   1.468       .  S
C275        C536   1.510       .  S
C276        C916   1.508       .  S
Zn277       O282   1.944       .  S
Zn277       O286   1.978       .  S
Zn277       O293   1.976       .  S
Zn277       O281   1.884       .  S
Zn278       O283   2.031       .  S
Zn278       O285   2.153       .  S
Zn278       O289   2.161       .  S
Zn278       O281   1.922       .  S
Zn279       O284   2.025       .  S
Zn279       O287   1.975       .  S
Zn279       O290   1.977       .  S
Zn279       O281   1.899       .  S
Zn280       O288   2.049       .  S
Zn280       O291   2.014       .  S
Zn280       O292   2.042       .  S
Zn280       O281   1.900       .  S
O282        C294   1.264       .  A
O283        C295   1.275       .  A
O284        C296   1.274       .  A
O285        C294   1.293       .  A
O286        C296   1.268       .  A
O287        C295   1.272       .  A
O288        C297   1.278   1_545  A
O289        C298   1.300       .  A
O290        C297   1.272   1_545  A
O291        C298   1.278       .  A
O292        C299   1.280       .  A
O293        C299   1.268       .  A
C294        C596   1.512       .  S
C295        C509   1.470       .  S
C296        C526   1.481       .  S
C297        C499   1.491       .  S
C298        C859   1.515       .  S
C299        C516   1.486       .  S
Zn300       O305   2.001       .  S
Zn300       O309   1.969       .  S
Zn300       O316   1.917       .  S
Zn300       O304   1.887       .  S
Zn301       O306   1.974       .  S
Zn301       O308   2.002       .  S
Zn301       O312   1.961       .  S
Zn301       O304   1.886       .  S
Zn302       O307   2.045       .  S
Zn302       O310   2.020       .  S
Zn302       O313   2.007       .  S
Zn302       O304   1.908       .  S
Zn303       O311   2.123       .  S
Zn303       O314   2.040       .  S
Zn303       O315   2.172       .  S
Zn303       O304   1.940       .  S
O305        C317   1.272   1_545  A
O306        C318   1.271       .  A
O307        C319   1.277       .  A
O308        C317   1.270   1_545  A
O309        C319   1.269       .  A
O310        C318   1.276       .  A
O311        C320   1.294       .  A
O312        C321   1.269       .  A
O313        C320   1.277       .  A
O314        C321   1.276       .  A
O315        C322   1.295       .  A
O316        C322   1.263       .  A
C317        C489   1.475       .  S
C318        C476   1.464       .  S
C319        C519   1.471       .  S
C320        C809   1.513       .  S
C321       C1460   1.461   1_554  S
C322        C549   1.500   1_545  S
Zn323       O328   2.170       .  S
Zn323       O332   2.043       .  S
Zn323       O339   2.161       .  S
Zn323       O327   1.927       .  S
Zn324       O329   2.038       .  S
Zn324       O331   2.000       .  S
Zn324       O335   2.025       .  S
Zn324       O327   1.899       .  S
Zn325       O330   2.025       .  S
Zn325       O333   1.983       .  S
Zn325       O336   2.029       .  S
Zn325       O327   1.911       .  S
Zn326       O334   1.988       .  S
Zn326       O337   2.011       .  S
Zn326       O338   1.949       .  S
Zn326       O327   1.908       .  S
O328        C340   1.300       .  A
O329        C341   1.276       .  A
O330        C342   1.277       .  A
O331        C340   1.277       .  A
O332        C342   1.277       .  A
O333        C341   1.271       .  A
O334        C343   1.273       .  A
O335        C344   1.276       .  A
O336        C343   1.277       .  A
O337        C344   1.272       .  A
O338        C345   1.268       .  A
O339        C345   1.293       .  A
C340        C776   1.507       .  S
C341        C446   1.486       .  S
C342        C459   1.482       .  S
C343        C496   1.478   1_655  S
C344        C466   1.479       .  S
C345        C539   1.507       .  S
Zn346       O351   1.971       .  S
Zn346       O355   1.989       .  S
Zn346       O362   2.005       .  S
Zn346       O350   1.904       .  S
Zn347       O352   2.154       .  S
Zn347       O354   2.082       .  S
Zn347       O358   2.198       .  S
Zn347       O350   1.956       .  S
Zn348       O353   2.023       .  S
Zn348       O356   2.016       .  S
Zn348       O359   2.062       .  S
Zn348       O350   1.929       .  S
Zn349       O357   1.968       .  S
Zn349       O360   1.926       .  S
Zn349       O361   2.009       .  S
Zn349       O350   1.901       .  S
O351        C363   1.271       .  A
O352        C364   1.296       .  A
O353        C365   1.275       .  A
O354        C363   1.281       .  A
O355        C365   1.273       .  A
O356        C364   1.277       .  A
O357        C366   1.267       .  A
O358        C367   1.299       .  A
O359        C366   1.278       .  A
O360        C367   1.264       .  A
O361        C368   1.272       .  A
O362        C368   1.269       .  A
C363       C1410   1.476   1_554  S
C364        C719   1.506       .  S
C365        C486   1.483   1_655  S
C366        C469   1.488       .  S
C367        C679   1.509       .  S
C368        C436   1.480       .  S
Zn369       O374   1.940       .  S
Zn369       O378   1.989       .  S
Zn369       O385   2.007       .  S
Zn369       O373   1.910       .  S
Zn370       O375   2.134       .  S
Zn370       O377   2.156       .  S
Zn370       O381   2.061       .  S
Zn370       O373   1.945       .  S
Zn371       O376   2.051       .  S
Zn371       O379   2.013       .  S
Zn371       O382   2.026       .  S
Zn371       O373   1.933       .  S
Zn372       O380   1.972       .  S
Zn372       O383   1.985       .  S
Zn372       O384   2.000       .  S
Zn372       O373   1.899       .  S
O374        C386   1.264       .  A
O375        C387   1.294       .  A
O376        C388   1.276       .  A
O377        C386   1.294       .  A
O378        C388   1.272       .  A
O379        C387   1.278       .  A
O380        C389   1.271       .  A
O381        C390   1.276       .  A
O382        C389   1.275       .  A
O383        C390   1.272       .  A
O384        C391   1.272   1_545  A
O385        C391   1.272   1_545  A
C386        C649   1.490   1_545  S
C387        C739   1.518       .  S
C388        C419   1.479       .  S
C389        C529   1.461   1_655  S
C390        C429   1.493       .  S
C391        C449   1.485       .  S
Zn392       O397   1.945       .  S
Zn392       O401   1.996       .  S
Zn392       O408   1.983       .  S
Zn392       O396   1.896       .  S
Zn393       O398   2.064       .  S
Zn393       O400   2.154       .  S
Zn393       O404   2.123       .  S
Zn393       O396   1.939       .  S
Zn394       O399   1.997       .  S
Zn394       O402   1.976       .  S
Zn394       O405   1.987       .  S
Zn394       O396   1.889       .  S
Zn395       O403   2.035   1_545  S
Zn395       O406   2.019       .  S
Zn395       O407   2.056       .  S
Zn395       O396   1.921       .  S
O397        C409   1.265       .  A
O398        C410   1.277       .  A
O399        C411   1.269       .  A
O400        C409   1.293       .  A
O401        C411   1.272       .  A
O402        C410   1.271       .  A
O403        C412   1.276       .  A
O404        C413   1.293       .  A
O405        C412   1.273   1_545  A
O406        C413   1.279       .  A
O407        C414   1.278       .  A
O408        C414   1.271       .  A
C409        C589   1.490       .  S
C410       C1370   1.472   1_554  S
C411        C479   1.482   1_655  S
C412        C439   1.482       .  S
C413        C896   1.515       .  S
C414        C426   1.481       .  S
C415        C416   1.405       .  A
C415        C420   1.407       .  A
C415        H422   1.083       .  S
C416       C1364   1.471       .  S
C416        C417   1.405       .  A
C417        C418   1.393       .  A
C417      Br1378   1.922       .  S
C418        C419   1.404       .  A
C418        H423   1.084       .  S
C419        C420   1.412       .  A
C420       Br421   1.918       .  S
Br424      C1371   1.922       .  S
C425        C426   1.404       .  A
C425        C430   1.407       .  A
C425        H432   1.083       .  S
C426        C427   1.410       .  A
C427        C428   1.393       .  A
C427       Br434   1.924       .  S
C428        C429   1.407       .  A
C428        H433   1.083       .  S
C429        C430   1.418       .  A
C430       Br431   1.918       .  S
C435        C436   1.405       .  A
C435        C440   1.399       .  A
C435        H442   1.084       .  S
C436        C437   1.412       .  A
C437        C438   1.396       .  A
C437       Br444   1.923       .  S
C438        C439   1.406       .  A
C438        H443   1.084       .  S
C439        C440   1.414       .  A
C440       Br441   1.922       .  S
C445        C446   1.409       .  A
C445        C450   1.397       .  A
C445        H452   1.084       .  S
C446        C447   1.413       .  A
C447        C448   1.398       .  A
C447       Br454   1.922       .  S
C448        C449   1.408       .  A
C448        H453   1.083       .  S
C449        C450   1.413       .  A
C450       Br451   1.923       .  S
C455        C456   1.403       .  A
C455        C460   1.398       .  A
C455        H462   1.084       .  S
C456       C1317   1.476       .  S
C456        C457   1.409       .  A
C457        C458   1.407       .  A
C457       Br464   1.918       .  S
C458        C459   1.407       .  A
C458        H463   1.083       .  S
C459        C460   1.409       .  A
C460       Br461   1.920       .  S
C465        C466   1.398       .  A
C465        C470   1.391       .  A
C465        H472   1.084       .  S
C466        C467   1.412       .  A
C467        C468   1.407       .  A
C467       Br474   1.919       .  S
C468        C469   1.409       .  A
C468        H473   1.083       .  S
C469        C470   1.419       .  A
C470       Br471   1.926       .  S
C475        C476   1.400       .  A
C475        C480   1.396       .  A
C475        H482   1.084       .  S
C476        C477   1.406       .  A
C477        C478   1.394       .  A
C477       Br484   1.922       .  S
C478        C479   1.408       .  A
C478        H483   1.083       .  S
C479        C480   1.417       .  A
C480       Br481   1.923       .  S
C485        C486   1.407       .  A
C485        C490   1.396       .  A
C485        H492   1.083       .  S
C486        C487   1.416       .  A
C487        C488   1.398       .  A
C487       Br494   1.923       .  S
C488        C489   1.404       .  A
C488        H493   1.084       .  S
C489        C490   1.409       .  A
C490       Br491   1.922       .  S
C495        C496   1.406       .  A
C495        C500   1.401       .  A
C495        H502   1.084       .  S
C496        C497   1.407       .  A
C497        C498   1.394       .  A
C497       Br504   1.923       .  S
C498        C499   1.411       .  A
C498        H503   1.083       .  S
C499        C500   1.415       .  A
C500       Br501   1.922       .  S
C505        C506   1.403       .  A
C505        C510   1.401       .  A
C505        H512   1.083       .  S
C506       C1275   1.461       .  S
C506        C507   1.404       .  A
C507        C508   1.391       .  A
C507       Br514   1.920       .  S
C508        C509   1.403       .  A
C508        H513   1.084       .  S
C509        C510   1.411       .  A
C510       Br511   1.920       .  S
C515        C516   1.404       .  A
C515        C520   1.391       .  A
C515        H522   1.083       .  S
C516        C517   1.422       .  A
C517        C518   1.403       .  A
C517       Br524   1.923       .  S
C518        C519   1.400       .  A
C518        H523   1.084       .  S
C519        C520   1.409       .  A
C520       Br521   1.924       .  S
C525        C526   1.408       .  A
C525        C530   1.398       .  A
C525        H532   1.083       .  S
C526        C527   1.418       .  A
C527        C528   1.393       .  A
C527       Br534   1.924       .  S
C528        C529   1.397       .  A
C528        H533   1.084       .  S
C529        C530   1.406       .  A
C530       Br531   1.921       .  S
C535        C536   1.421       .  A
C535        C540   1.417       .  A
C535        H542   1.083       .  S
C536        C537   1.410       .  A
C537        C538   1.404       .  A
C537       Br544   1.921       .  S
C538        C539   1.415   1_455  A
C538        H543   1.083       .  S
C539        C540   1.407   1_655  A
C540       Br541   1.915   1_455  S
C545        C546   1.423       .  A
C545        C550   1.415       .  A
C545        H552   1.082       .  S
C546        C547   1.414       .  A
C547        C548   1.402       .  A
C547       Br554   1.921       .  S
C548        C549   1.413       .  A
C548        H553   1.085       .  S
C549        C550   1.405       .  A
C550       Br551   1.915   1_565  S
C555        C556   1.400       .  A
C555        C560   1.402       .  A
C555        H562   1.084       .  S
C556        C557   1.408       .  A
C557        C558   1.394       .  A
C557       Br564   1.922       .  S
C558        C559   1.403       .  A
C558        H563   1.084       .  S
C559        C560   1.417       .  A
C560       Br561   1.922       .  S
C565        C566   1.402       .  A
C565        C570   1.395       .  A
C565        H572   1.084       .  S
C566       C1228   1.467   1_554  S
C566        C567   1.411       .  A
C567        C568   1.394       .  A
C567      Br1528   1.919       .  S
C568        C569   1.399       .  A
C568        H573   1.084       .  S
C569        C570   1.405       .  A
C570       Br571   1.913       .  S
Br574      C1521   1.918       .  S
C575        C576   1.409       .  A
C575        C580   1.396       .  A
C575        H582   1.083       .  S
C576        C577   1.417       .  A
C577        C578   1.399       .  A
C577       Br584   1.922       .  S
C578        C579   1.402       .  A
C578        H583   1.084       .  S
C579        C580   1.408       .  A
C580       Br581   1.922       .  S
C585        C586   1.404       .  A
C585        C590   1.407       .  A
C585        H592   1.083       .  S
C586        C587   1.424       .  A
C587        C588   1.411   1_455  A
C587       Br594   1.921       .  S
C588        C589   1.402       .  A
C588        H593   1.083       .  S
C589        C590   1.416   1_655  A
C590       Br591   1.919       .  S
C595        C596   1.408       .  A
C595        C600   1.413       .  A
C595        H602   1.083       .  S
C596        C597   1.429       .  A
C597        C598   1.406       .  A
C597       Br604   1.926       .  S
C598        C599   1.400       .  A
C598        H603   1.084       .  S
C599        C600   1.419       .  A
C600       Br601   1.919       .  S
C605        C606   1.404       .  A
C605        C610   1.405       .  A
C605        H612   1.084       .  S
C606        C607   1.409       .  A
C607        C608   1.399       .  A
C607       Br614   1.919       .  S
C608        C609   1.400       .  A
C608        H613   1.084       .  S
C609       C1158   1.475   1_554  S
C609        C610   1.411       .  A
C610      Br1565   1.919       .  S
Br611      C1564   1.919       .  S
C615        C616   1.406       .  A
C615        C620   1.410       .  A
C615        H622   1.083       .  S
C616        C617   1.413       .  A
C617        C618   1.396       .  A
C617       Br624   1.922       .  S
C618        C619   1.400       .  A
C618        H623   1.084       .  S
C619        C620   1.413       .  A
C620       Br621   1.918       .  S
C625        C626   1.401       .  A
C625        C630   1.397       .  A
C625        H632   1.084       .  S
C626        C627   1.406       .  A
C627        C628   1.396       .  A
C627       Br634   1.916       .  S
C628        C629   1.402       .  A
C628        H633   1.084       .  S
C629        C630   1.410       .  A
C630       Br631   1.922       .  S
C635        C636   1.408       .  A
C635        C640   1.391       .  A
C635        H642   1.083       .  S
C636        C637   1.418       .  A
C637        C638   1.394       .  A
C637       Br644   1.924       .  S
C638        C639   1.397       .  A
C638        H643   1.084       .  S
C639        C640   1.403       .  A
C640       Br641   1.921       .  S
C645        C646   1.407       .  A
C645        C650   1.412       .  A
C645        H652   1.082       .  S
C646        C647   1.416       .  A
C647        C648   1.408       .  A
C647       Br654   1.921       .  S
C648        C649   1.406       .  A
C648        H653   1.084   1_565  S
C649        C650   1.414       .  A
C650       Br651   1.918       .  S
C655        C656   1.407       .  A
C655        C660   1.393       .  A
C655        H662   1.083       .  S
C656        C657   1.418       .  A
C657        C658   1.401       .  A
C657       Br664   1.922       .  S
C658        C659   1.402       .  A
C658        H663   1.084       .  S
C659        C660   1.408       .  A
C660       Br661   1.922       .  S
C665        C666   1.403       .  A
C665        C670   1.394       .  A
C665        H672   1.084       .  S
C666        C667   1.414       .  A
C667        C668   1.396       .  A
C667       Br674   1.922       .  S
C668        C669   1.399       .  A
C668        H673   1.084       .  S
C669        C670   1.406       .  A
C670       Br671   1.919       .  S
C675        C676   1.421       .  A
C675        C680   1.417       .  A
C675        H682   1.083       .  S
C676        C677   1.412       .  A
C677        C678   1.408       .  A
C677       Br684   1.920       .  S
C678        C679   1.417       .  A
C678        H683   1.084       .  S
C679        C680   1.409       .  A
C680       Br681   1.916       .  S
C685        C686   1.408       .  A
C685        C690   1.403       .  A
C685        H692   1.083       .  S
C686        C687   1.412       .  A
C687        C688   1.389       .  A
C687       Br694   1.924       .  S
C688        C689   1.404       .  A
C688        H693   1.084       .  S
C689        C690   1.410       .  A
C690       Br691   1.919       .  S
C695        C696   1.403       .  A
C695        C700   1.404       .  A
C695        H702   1.083       .  S
C696        C697   1.406       .  A
C697        C698   1.393       .  A
C697       Br704   1.921       .  S
C698        C699   1.402       .  A
C698        H703   1.084       .  S
C699       C1133   1.470   1_554  S
C699        C700   1.410       .  A
C700      Br1655   1.918       .  S
Br701      C1654   1.918       .  S
C705        C706   1.403       .  A
C705        C710   1.399       .  A
C705        H712   1.084       .  S
C706        C707   1.408       .  A
C707        C708   1.392       .  A
C707       Br714   1.922       .  S
C708        C709   1.403       .  A
C708        H713   1.084       .  S
C709        C710   1.412       .  A
C710       Br711   1.919       .  S
C715        C716   1.414       .  A
C715        C720   1.417       .  A
C715        H722   1.083       .  S
C716        C717   1.412       .  A
C717        C718   1.410       .  A
C717      Br1678   1.918   1_554  S
C718        C719   1.410       .  A
C718        H723   1.084       .  S
C719        C720   1.411       .  A
C720       Br721   1.915       .  S
Br724      C1671   1.918       .  S
C725        C726   1.403       .  A
C725        C730   1.412       .  A
C725       H1686   1.083       .  S
C726        C727   1.426       .  A
C727        C728   1.410       .  A
C727       Br734   1.914   1_455  S
C728        C729   1.399       .  A
C728        H733   1.083       .  S
C729        C730   1.425       .  A
C730       Br731   1.923       .  S
H732       C1679   1.083   1_554  S
C735        C736   1.411       .  A
C735        C740   1.407       .  A
C735        H742   1.084       .  S
C736        C737   1.405       .  A
C737        C738   1.413       .  A
C737       Br744   1.916   1_655  S
C738        C739   1.422       .  A
C738        H743   1.083       .  S
C739        C740   1.416       .  A
C740       Br741   1.920       .  S
C745        C746   1.422       .  A
C745        C750   1.410       .  A
C745        H752   1.083   1_455  S
C746        C747   1.414       .  A
C747        C748   1.403       .  A
C747       Br754   1.922       .  S
C748        C749   1.411       .  A
C748        H753   1.085       .  S
C749        C750   1.403       .  A
C750       Br751   1.916       .  S
C755        C756   1.402       .  A
C755        C760   1.402       .  A
C755        H762   1.084       .  S
C756        C757   1.406       .  A
C757        C758   1.390       .  A
C757       Br764   1.923       .  S
C758        C759   1.400       .  A
C758        H763   1.079       .  S
C759        C760   1.413       .  A
C760       Br761   1.920       .  S
C765        C766   1.404       .  A
C765        C770   1.404       .  A
C765        H772   1.084       .  S
C766        C767   1.409       .  A
C767        C768   1.392       .  A
C767       Br774   1.923       .  S
C768        C769   1.403       .  A
C768        H773   1.084       .  S
C769        C770   1.416       .  A
C770       Br771   1.921       .  S
C775        C776   1.408       .  A
C775        C780   1.420       .  A
C775        H782   1.083       .  S
C776        C777   1.417       .  A
C777        C778   1.406       .  A
C777       Br784   1.923       .  S
C778        C779   1.408       .  A
C778        H783   1.084       .  S
C779        C780   1.420       .  A
C780       Br781   1.916       .  S
C785        C786   1.418       .  A
C785        C790   1.415       .  A
C785        H792   1.083       .  S
C786        C787   1.410       .  A
C787        C788   1.410       .  A
C787       Br794   1.919       .  S
C788        C789   1.418       .  A
C788        H793   1.084       .  S
C789        C790   1.411       .  A
C790       Br791   1.917       .  S
C795        C796   1.405       .  A
C795        C800   1.399       .  A
C795        H802   1.083       .  S
C796        C797   1.412       .  A
C797        C798   1.390       .  A
C797       Br804   1.924       .  S
C798        C799   1.401       .  A
C798        H803   1.084       .  S
C799        C800   1.411       .  A
C800       Br801   1.921       .  S
C805        C806   1.411       .  A
C805        C810   1.406       .  A
C805       H1766   1.084       .  S
C806        C807   1.406       .  A
C807        C808   1.413       .  A
C807       Br814   1.916       .  S
C808        C809   1.420       .  A
C808        H813   1.083       .  S
C809        C810   1.416       .  A
C810       Br811   1.921       .  S
H812       C1759   1.084       .  S
C815        C820   1.397       .  A
C815       C1770   1.402   1_554  A
C815        H822   1.084       .  S
C816        C817   1.408       .  A
C816       C1769   1.402       .  A
C817        C818   1.395       .  A
C817       Br824   1.922       .  S
C818       C1773   1.407       .  A
C818        H823   1.083       .  S
C819        C820   1.414   1_556  A
C819       C1772   1.407       .  A
C820       Br821   1.922       .  S
C825        C826   1.410       .  A
C825        C830   1.409       .  A
C825        H832   1.084       .  S
C826        C827   1.405       .  A
C827        C828   1.409       .  A
C827       Br834   1.917       .  S
C828        C829   1.416       .  A
C828       H1787   1.083       .  S
C829        C830   1.414       .  A
C830       Br831   1.918       .  S
H833       C1782   1.083       .  S
C835        C836   1.400       .  A
C835        C840   1.400       .  A
C835        H842   1.084       .  S
C836        C837   1.407       .  A
C837        C838   1.396       .  A
C837       Br844   1.920       .  S
C838        C839   1.403       .  A
C838        H843   1.084       .  S
C839        C840   1.413       .  A
C840       Br841   1.920       .  S
C845        C846   1.400       .  A
C845        C850   1.401       .  A
C845        H852   1.081       .  S
C846        C847   1.409       .  A
C847        C848   1.395       .  A
C847       Br854   1.922       .  S
C848        C849   1.404       .  A
C848        H853   1.083       .  S
C849        C850   1.415       .  A
C850       Br851   1.921       .  S
C855        C856   1.419       .  A
C855        C860   1.409       .  A
C855        H862   1.083       .  S
C856        C857   1.409       .  A
C857        C858   1.418       .  A
C857       Br864   1.915   1_545  S
C858        C859   1.421       .  A
C858        H863   1.083       .  S
C859        C860   1.410       .  A
C860       Br861   1.920       .  S
C865        C866   1.408       .  A
C865        C870   1.397       .  A
C865        H872   1.083       .  S
C866        C867   1.412       .  A
C867        C868   1.391       .  A
C867       Br874   1.924       .  S
C868        C869   1.408       .  A
C868        H873   1.083       .  S
C869        C870   1.412       .  A
C870       Br871   1.922       .  S
C875        C876   1.410       .  A
C875        C880   1.421       .  A
C875        H882   1.083       .  S
C876        C877   1.433       .  A
C877        C878   1.404       .  A
C877       Br884   1.927   1_565  S
C878        C879   1.396       .  A
C878        H883   1.084       .  S
C879        C880   1.419       .  A
C880       Br881   1.915       .  S
C885        C886   1.405       .  A
C885        C890   1.395       .  A
C885        H892   1.083       .  S
C886        C887   1.422       .  A
C887        C888   1.402       .  A
C887       Br894   1.924       .  S
C888        C889   1.401       .  A
C888        H893   1.084       .  S
C889        C890   1.413       .  A
C890       Br891   1.923       .  S
C895        C896   1.419       .  A
C895        C900   1.415       .  A
C895        H902   1.083       .  S
C896        C897   1.414       .  A
C897        C898   1.405       .  A
C897       Br904   1.923       .  S
C898        C899   1.417       .  A
C898        H903   1.083       .  S
C899        C900   1.410       .  A
C900       Br901   1.917   1_545  S
C905        C910   1.394       .  A
C905       C1860   1.402   1_554  A
C905        H912   1.084       .  S
C906        C907   1.405       .  A
C906       C1859   1.402       .  A
C907        C908   1.394       .  A
C907       Br914   1.921       .  S
C908       C1863   1.408       .  A
C908        H913   1.083       .  S
C909        C910   1.412   1_556  A
C909       C1862   1.408       .  A
C910       Br911   1.922       .  S
C915        C916   1.416       .  A
C915        C920   1.408       .  A
C915        H922   1.083       .  S
C916        C917   1.406       .  A
C917        C918   1.415       .  A
C917       Br924   1.916       .  S
C918        C919   1.421       .  A
C918        H923   1.083       .  S
C919        C920   1.410       .  A
C920       Br921   1.920       .  S
C925        C926   1.403       .  A
C925        C930   1.396       .  A
C925        H932   1.084       .  S
C926        C927   1.410       .  A
C927        C928   1.397       .  A
C927       Br934   1.921       .  S
C928        C929   1.402       .  A
C928        H933   1.084       .  S
C929        C930   1.407       .  A
C930       Br931   1.917   1_545  S
C935        C936   1.399       .  A
C935        C940   1.394       .  A
C935        H942   1.084       .  S
C936        C937   1.405       .  A
C937        C938   1.396       .  A
C937       Br944   1.920   1_545  S
C938        C939   1.406       .  A
C938        H943   1.084       .  S
C939        C940   1.412       .  A
C940       Br941   1.921       .  S
C945        C946   1.406   1_554  A
C945        C950   1.396       .  A
C945        H952   1.083       .  S
C946       C1901   1.419       .  A
C947        C948   1.400       .  A
C947       C1900   1.419       .  A
C947       Br954   1.922       .  S
C948        C949   1.401       .  A
C948        H953   1.084       .  S
C949       C1904   1.410       .  A
C950       C1903   1.410   1_554  A
C950       Br951   1.923       .  S
Zn955       O960   1.997       .  S
Zn955       O964   2.014       .  S
Zn955       O971   2.023       .  S
Zn956       O961   2.139       .  S
Zn956       O963   2.152   1_545  S
Zn956       O967   2.016       .  S
Zn956       O959   1.921       .  S
Zn957       O962   1.990       .  S
Zn957       O965   1.962       .  S
Zn957       O968   1.996       .  S
Zn958       O966   2.032       .  S
Zn958       O969   1.997       .  S
Zn958       O970   1.970       .  S
Zn958       O959   1.904       .  S
O960        C972   1.275   1_545  A
O961        C973   1.290       .  A
O962        C974   1.272       .  A
O964        C974   1.275       .  A
O966        C975   1.277       .  A
O967        C976   1.275       .  A
O969        C976   1.273       .  A
O971        C977   1.275       .  A
C972       C1873   1.512       .  S
C973       C1853   1.513       .  S
C974       C1893   1.471       .  S
C975       C1900   1.488       .  S
C976       C1880   1.468       .  S
C977       C1860   1.462       .  S
Zn978       O983   1.976       .  S
Zn978       O987   2.021       .  S
Zn978       O994   2.026       .  S
Zn978       O982   1.879       .  S
Zn979       O984   2.008       .  S
Zn979       O986   2.199   1_545  S
Zn979       O990   2.175       .  S
Zn979       O982   1.925       .  S
Zn980       O985   1.964       .  S
Zn980       O988   1.992       .  S
Zn980       O991   2.035       .  S
Zn980       O982   1.898       .  S
Zn981       O989   1.990       .  S
Zn981       O992   1.960       .  S
Zn981       O993   1.987       .  S
Zn981       O982   1.887       .  S
O983        C995   1.270   1_545  A
O984        C996   1.273       .  A
O985        C997   1.270       .  A
O986        C995   1.303       .  A
O987        C997   1.274       .  A
O988        C996   1.274       .  A
O989        C998   1.268       .  A
O990        C999   1.297       .  A
O991        C998   1.278       .  A
O992        C999   1.270       .  A
O993       C1000   1.273       .  A
O994       C1000   1.276       .  A
C995       C1830   1.522       .  S
C996       C1890   1.459       .  S
C997       C1823   1.481       .  S
C998       C1840   1.490       .  S
C999       C1810   1.516       .  S
C1000      C1883   1.467       .  S
Zn1001     O1006   2.022       .  S
Zn1001     O1010   2.032       .  S
Zn1001     O1017   1.995       .  S
Zn1002     O1007   1.978       .  S
Zn1002     O1009   1.984       .  S
Zn1002     O1013   1.958       .  S
Zn1002     O1005   1.892       .  S
Zn1003     O1008   1.984       .  S
Zn1003     O1011   2.008       .  S
Zn1003     O1014   1.924       .  S
Zn1004     O1012   2.173       .  S
Zn1004     O1015   2.058       .  S
Zn1004     O1016   2.134       .  S
Zn1004     O1005   1.947       .  S
O1008      C1020   1.271       .  A
O1009      C1018   1.271       .  A
O1010      C1020   1.274       .  A
O1011      C1019   1.273       .  A
O1013      C1022   1.268       .  A
O1014      C1021   1.263       .  A
O1015      C1022   1.278       .  A
O1016      C1023   1.295       .  A
C1018      C1770   1.469       .  S
C1019      C1863   1.475       .  S
C1020      C1790   1.465       .  S
C1021      C1760   1.494       .  S
C1022      C1800   1.471       .  S
C1023      C1783   1.507       .  S
Zn1024     O1029   2.058       .  S
Zn1024     O1033   2.034       .  S
Zn1024     O1040   2.014       .  S
Zn1024     O1028   1.912       .  S
Zn1025     O1030   2.024       .  S
Zn1025     O1032   1.981       .  S
Zn1025     O1036   2.008       .  S
Zn1025     O1028   1.911       .  S
Zn1026     O1031   1.990       .  S
Zn1026     O1034   1.971       .  S
Zn1026     O1037   1.971       .  S
Zn1026     O1028   1.902       .  S
Zn1027     O1035   2.148       .  S
Zn1027     O1038   2.014       .  S
Zn1027     O1039   2.150       .  S
Zn1027     O1028   1.915       .  S
O1029      C1041   1.281       .  A
O1030      C1042   1.274       .  A
O1031      C1043   1.272       .  A
O1032      C1041   1.271       .  A
O1033      C1043   1.277       .  A
O1034      C1042   1.271       .  A
O1035      C1044   1.292       .  A
O1036      C1045   1.275       .  A
O1037      C1044   1.269       .  A
O1038      C1045   1.273       .  A
O1039      C1046   1.298       .  A
O1040      C1046   1.278       .  A
C1041      C1843   1.480       .  S
C1042      C1753   1.470       .  S
C1043      C1793   1.472       .  S
C1044      C1733   1.509       .  S
C1045      C1803   1.479       .  S
C1046      C1740   1.513       .  S
Zn1047     O1052   2.118       .  S
Zn1047     O1056   2.054       .  S
Zn1047     O1063   2.170       .  S
Zn1047     O1051   1.944       .  S
Zn1048     O1053   2.023       .  S
Zn1048     O1055   1.990       .  S
Zn1048     O1059   2.031       .  S
Zn1048     O1051   1.919       .  S
Zn1049     O1054   1.963       .  S
Zn1049     O1057   1.966       .  S
Zn1049     O1060   1.988       .  S
Zn1049     O1051   1.885       .  S
Zn1050     O1058   1.995       .  S
Zn1050     O1061   1.978       .  S
Zn1050     O1062   1.933       .  S
Zn1050     O1051   1.889       .  S
O1052      C1064   1.294       .  A
O1053      C1065   1.275       .  A
O1054      C1066   1.268       .  A
O1055      C1064   1.276       .  A
O1056      C1066   1.277       .  A
O1057      C1065   1.269       .  A
O1058      C1067   1.271       .  A
O1059      C1068   1.274       .  A
O1060      C1067   1.270       .  A
O1061      C1068   1.271       .  A
O1062      C1069   1.264       .  A
O1063      C1069   1.295       .  A
C1064      C1700   1.509   1_655  S
C1065      C1750   1.472       .  S
C1066      C1720   1.474       .  S
C1067      C1820   1.479       .  S
C1068      C1710   1.465       .  S
C1069      C1690   1.496       .  S
Zn1070     O1075   2.018       .  S
Zn1070     O1079   2.039       .  S
Zn1070     O1086   2.001       .  S
Zn1070     O1074   1.906       .  S
Zn1071     O1076   1.983       .  S
Zn1071     O1078   2.002       .  S
Zn1071     O1082   1.983       .  S
Zn1071     O1074   1.918       .  S
Zn1072     O1077   1.984       .  S
Zn1072     O1080   2.021       .  S
Zn1072     O1083   2.000       .  S
Zn1073     O1081   2.024       .  S
Zn1073     O1084   2.143       .  S
Zn1073     O1085   2.162       .  S
O1075      C1087   1.277       .  A
O1078      C1087   1.273       .  A
O1079      C1089   1.277       .  A
O1080      C1088   1.274       .  A
O1081      C1090   1.274       .  A
O1083      C1090   1.275       .  A
O1084      C1091   1.292       .  A
O1086      C1092   1.274       .  A
C1087      C1713   1.475       .  S
C1088      C1773   1.478       .  S
C1089      C1903   1.476       .  S
C1090      C1723   1.481       .  S
C1091      C1670   1.502       .  S
C1092      C1680   1.512   1_655  S
Zn1093     O1098   2.142       .  S
Zn1093     O1102   2.014       .  S
Zn1093     O1109   2.138       .  S
Zn1093     O1097   1.920       .  S
Zn1094     O1099   2.031       .  S
Zn1094     O1101   2.024       .  S
Zn1094     O1105   2.028       .  S
Zn1094     O1097   1.907       .  S
Zn1095     O1100   1.988       .  S
Zn1095     O1103   1.979       .  S
Zn1095     O1106   2.023       .  S
Zn1095     O1097   1.912       .  S
Zn1096     O1104   1.985       .  S
Zn1096     O1107   2.006       .  S
Zn1096     O1108   1.969       .  S
Zn1096     O1097   1.911       .  S
O1098      C1110   1.296       .  A
O1099      C1111   1.276       .  A
O1100      C1112   1.271       .  A
O1101      C1110   1.278       .  A
O1102      C1112   1.273       .  A
O1103      C1111   1.270       .  A
O1104      C1113   1.271       .  A
O1105      C1114   1.277       .  A
O1106      C1113   1.273       .  A
O1107      C1114   1.273       .  A
O1108      C1115   1.269       .  A
O1109      C1115   1.290       .  A
C1110      C1630   1.517       .  S
C1111      C1623   1.462       .  S
C1112      C1640   1.477       .  S
C1113      C1663   1.474       .  S
C1114      C1650   1.466       .  S
C1115      C1833   1.499       .  S
Zn1116     O1121   2.036       .  S
Zn1116     O1125   2.013       .  S
Zn1116     O1132   1.999       .  S
Zn1116     O1120   1.916       .  S
Zn1117     O1122   2.014       .  S
Zn1117     O1124   1.987       .  S
Zn1117     O1128   1.943       .  S
Zn1117     O1120   1.917       .  S
Zn1118     O1123   1.964       .  S
Zn1118     O1126   1.996       .  S
Zn1118     O1129   1.947       .  S
Zn1118     O1120   1.888       .  S
Zn1119     O1127   2.053       .  S
Zn1119     O1130   2.145       .  S
Zn1119     O1131   2.132       .  S
Zn1119     O1120   1.946       .  S
O1121      C1133   1.275       .  A
O1122      C1134   1.270       .  A
O1123      C1135   1.270       .  A
O1124      C1133   1.271       .  A
O1125      C1135   1.274       .  A
O1126      C1134   1.270       .  A
O1127      C1136   1.275       .  A
O1128      C1137   1.266       .  A
O1129      C1136   1.267       .  A
O1130      C1137   1.293       .  A
O1131      C1138   1.294       .  A
O1132      C1138   1.275       .  A
C1134      C1610   1.487       .  S
C1135      C1593   1.455       .  S
C1136      C1643   1.477       .  S
C1137      C1780   1.486       .  S
C1138      C1600   1.501       .  S
Zn1139     O1144   1.998       .  S
Zn1139     O1148   2.040       .  S
Zn1139     O1155   2.047       .  S
Zn1139     O1143   1.926       .  S
Zn1140     O1145   2.178       .  S
Zn1140     O1147   2.144       .  S
Zn1140     O1151   2.093       .  S
Zn1140     O1143   1.952       .  S
Zn1141     O1146   2.018       .  S
Zn1141     O1149   1.934       .  S
Zn1141     O1152   2.016       .  S
Zn1141     O1143   1.923       .  S
Zn1142     O1150   1.976       .  S
Zn1142     O1153   1.974       .  S
Zn1142     O1154   1.959       .  S
Zn1142     O1143   1.900       .  S
O1144      C1156   1.276       .  A
O1145      C1157   1.297       .  A
O1146      C1158   1.273       .  A
O1147      C1156   1.297       .  A
O1148      C1158   1.274       .  A
O1149      C1157   1.264       .  A
O1150      C1159   1.268       .  A
O1151      C1160   1.280       .  A
O1152      C1159   1.274       .  A
O1153      C1160   1.269       .  A
O1154      C1161   1.268       .  A
O1155      C1161   1.278       .  A
C1156      C1553   1.502       .  S
C1157      C1683   1.504       .  S
C1159      C1583   1.467       .  S
C1160      C1570   1.487       .  S
C1161      C1613   1.472       .  S
Zn1162     O1167   1.951       .  S
Zn1162     O1171   2.021       .  S
Zn1162     O1178   2.012       .  S
Zn1162     O1166   1.914       .  S
Zn1163     O1168   2.144       .  S
Zn1163     O1170   2.182       .  S
Zn1163     O1174   2.073       .  S
Zn1163     O1166   1.947       .  S
Zn1164     O1169   2.049       .  S
Zn1164     O1172   1.992       .  S
Zn1164     O1175   2.036       .  S
Zn1164     O1166   1.918       .  S
Zn1165     O1173   1.978       .  S
Zn1165     O1176   1.979       .  S
Zn1165     O1177   1.983       .  S
Zn1165     O1166   1.908       .  S
O1167      C1179   1.268       .  A
O1168      C1180   1.297       .  A
O1169      C1181   1.275       .  A
O1170      C1179   1.298       .  A
O1171      C1181   1.274       .  A
O1172      C1180   1.275       .  A
O1173      C1182   1.270       .  A
O1174      C1183   1.278       .  A
O1175      C1182   1.277       .  A
O1176      C1183   1.270       .  A
O1177      C1184   1.269       .  A
O1178      C1184   1.275       .  A
C1179      C1743   1.512       .  S
C1180      C1540   1.505       .  S
C1181      C1573   1.483       .  S
C1182      C1533   1.473       .  S
C1183      C1560   1.475       .  S
C1184      C1620   1.472       .  S
Zn1185     O1190   1.978       .  S
Zn1185     O1194   1.966       .  S
Zn1185     O1201   2.000       .  S
Zn1185     O1189   1.887       .  S
Zn1186     O1191   2.020       .  S
Zn1186     O1193   2.024       .  S
Zn1186     O1197   2.049       .  S
Zn1186     O1189   1.919       .  S
Zn1187     O1192   2.029       .  S
Zn1187     O1195   2.110       .  S
Zn1187     O1198   2.149       .  S
Zn1187     O1189   1.940       .  S
Zn1188     O1196   1.922       .  S
Zn1188     O1199   1.967       .  S
Zn1188     O1200   2.006       .  S
Zn1188     O1189   1.897       .  S
O1190      C1202   1.272       .  A
O1191      C1203   1.278       .  A
O1192      C1204   1.274       .  A
O1193      C1202   1.276       .  A
O1194      C1204   1.269       .  A
O1195      C1203   1.292       .  A
O1196      C1205   1.263       .  A
O1197      C1206   1.278       .  A
O1198      C1205   1.292       .  A
O1199      C1206   1.270       .  A
O1200      C1207   1.270       .  A
O1201      C1207   1.270       .  A
C1202      C1660   1.468       .  S
C1203      C1500   1.515       .  S
C1204      C1523   1.460       .  S
C1205      C1703   1.488       .  S
C1206      C1510   1.467       .  S
C1207      C1530   1.487       .  S
Zn1208     O1213   1.988       .  S
Zn1208     O1217   1.973       .  S
Zn1208     O1224   1.967       .  S
Zn1208     O1212   1.888       .  S
Zn1209     O1214   2.055       .  S
Zn1209     O1216   2.038       .  S
Zn1209     O1220   2.020       .  S
Zn1209     O1212   1.898       .  S
Zn1210     O1215   2.000       .  S
Zn1210     O1218   1.957       .  S
Zn1210     O1221   1.977       .  S
Zn1210     O1212   1.894       .  S
Zn1211     O1219   2.014       .  S
Zn1211     O1222   2.138       .  S
Zn1211     O1223   2.153       .  S
Zn1211     O1212   1.908       .  S
O1213      C1225   1.272       .  A
O1214      C1226   1.279       .  A
O1215      C1227   1.271       .  A
O1216      C1225   1.279       .  A
O1217      C1227   1.271       .  A
O1218      C1226   1.267       .  A
O1219      C1228   1.274       .  A
O1220      C1229   1.280       .  A
O1221      C1228   1.270       .  A
O1222      C1229   1.298       .  A
O1223      C1230   1.292       .  A
O1224      C1230   1.269       .  A
C1225      C1513   1.479       .  S
C1226      C1580   1.460       .  S
C1227      C1590   1.476       .  S
C1229      C1490   1.510       .  S
C1230      C1870   1.509       .  S
Zn1231     O1236   1.942       .  S
Zn1231     O1240   1.977       .  S
Zn1231     O1247   1.973       .  S
Zn1231     O1235   1.883       .  S
Zn1232     O1237   2.028       .  S
Zn1232     O1239   2.155       .  S
Zn1232     O1243   2.161       .  S
Zn1232     O1235   1.922       .  S
Zn1233     O1238   2.027       .  S
Zn1233     O1241   1.977       .  S
Zn1233     O1244   1.979       .  S
Zn1233     O1235   1.899       .  S
Zn1234     O1242   2.051       .  S
Zn1234     O1245   2.015       .  S
Zn1234     O1246   2.043       .  S
Zn1234     O1235   1.900       .  S
O1236      C1248   1.263       .  A
O1237      C1249   1.275       .  A
O1238      C1250   1.274       .  A
O1239      C1248   1.293       .  A
O1240      C1250   1.268       .  A
O1241      C1249   1.272       .  A
O1242      C1251   1.279   1_545  A
O1243      C1252   1.300       .  A
O1244      C1251   1.273   1_545  A
O1245      C1252   1.278       .  A
O1246      C1253   1.280       .  A
O1247      C1253   1.268       .  A
C1248      C1550   1.512       .  S
C1249      C1463   1.470       .  S
C1250      C1480   1.483       .  S
C1251      C1453   1.491       .  S
C1252      C1813   1.516       .  S
C1253      C1470   1.485       .  S
Zn1254     O1259   2.001       .  S
Zn1254     O1263   1.968       .  S
Zn1254     O1270   1.916       .  S
Zn1254     O1258   1.887       .  S
Zn1255     O1260   1.975       .  S
Zn1255     O1262   2.002       .  S
Zn1255     O1266   1.962       .  S
Zn1255     O1258   1.886       .  S
Zn1256     O1261   2.043       .  S
Zn1256     O1264   2.020       .  S
Zn1256     O1267   2.008       .  S
Zn1256     O1258   1.907       .  S
Zn1257     O1265   2.125       .  S
Zn1257     O1268   2.040       .  S
Zn1257     O1269   2.174       .  S
Zn1257     O1258   1.940       .  S
O1259      C1271   1.272   1_545  A
O1260      C1272   1.272       .  A
O1261      C1273   1.277       .  A
O1262      C1271   1.270   1_545  A
O1263      C1273   1.269       .  A
O1264      C1272   1.276       .  A
O1265      C1274   1.294       .  A
O1266      C1275   1.269       .  A
O1267      C1274   1.277       .  A
O1268      C1275   1.276       .  A
O1269      C1276   1.295       .  A
O1270      C1276   1.263       .  A
C1271      C1443   1.475       .  S
C1272      C1430   1.464       .  S
C1273      C1473   1.470       .  S
C1274      C1763   1.513       .  S
C1276      C1503   1.501   1_545  S
Zn1277     O1282   2.168       .  S
Zn1277     O1286   2.043       .  S
Zn1277     O1293   2.160       .  S
Zn1277     O1281   1.927       .  S
Zn1278     O1283   2.038       .  S
Zn1278     O1285   1.999       .  S
Zn1278     O1289   2.026       .  S
Zn1278     O1281   1.899       .  S
Zn1279     O1284   2.026       .  S
Zn1279     O1287   1.982       .  S
Zn1279     O1290   2.030       .  S
Zn1279     O1281   1.911       .  S
Zn1280     O1288   1.989       .  S
Zn1280     O1291   2.011       .  S
Zn1280     O1292   1.950       .  S
Zn1280     O1281   1.907       .  S
O1282      C1294   1.300       .  A
O1283      C1295   1.276       .  A
O1284      C1296   1.277       .  A
O1285      C1294   1.277       .  A
O1286      C1296   1.277       .  A
O1287      C1295   1.271       .  A
O1288      C1297   1.273       .  A
O1289      C1298   1.276       .  A
O1290      C1297   1.277       .  A
O1291      C1298   1.272       .  A
O1292      C1299   1.268       .  A
O1293      C1299   1.293       .  A
C1294      C1730   1.507       .  S
C1295      C1400   1.487       .  S
C1296      C1413   1.483       .  S
C1297      C1450   1.479   1_655  S
C1298      C1420   1.479       .  S
C1299      C1493   1.506       .  S
Zn1300     O1305   1.970       .  S
Zn1300     O1309   1.988       .  S
Zn1300     O1316   2.003       .  S
Zn1300     O1304   1.904       .  S
Zn1301     O1306   2.153       .  S
Zn1301     O1308   2.081       .  S
Zn1301     O1312   2.197       .  S
Zn1301     O1304   1.956       .  S
Zn1302     O1307   2.023       .  S
Zn1302     O1310   2.014       .  S
Zn1302     O1313   2.061       .  S
Zn1302     O1304   1.929       .  S
Zn1303     O1311   1.968       .  S
Zn1303     O1314   1.926       .  S
Zn1303     O1315   2.008       .  S
Zn1303     O1304   1.900       .  S
O1305      C1317   1.271       .  A
O1306      C1318   1.296       .  A
O1307      C1319   1.275       .  A
O1308      C1317   1.281       .  A
O1309      C1319   1.273       .  A
O1310      C1318   1.277       .  A
O1311      C1320   1.267       .  A
O1312      C1321   1.299       .  A
O1313      C1320   1.278       .  A
O1314      C1321   1.264       .  A
O1315      C1322   1.272       .  A
O1316      C1322   1.269       .  A
C1318      C1673   1.505       .  S
C1319      C1440   1.483   1_655  S
C1320      C1423   1.488       .  S
C1321      C1633   1.509       .  S
C1322      C1390   1.479       .  S
Zn1323     O1328   1.940       .  S
Zn1323     O1332   1.990       .  S
Zn1323     O1339   2.007       .  S
Zn1323     O1327   1.910       .  S
Zn1324     O1329   2.134       .  S
Zn1324     O1331   2.156       .  S
Zn1324     O1335   2.061       .  S
Zn1324     O1327   1.946       .  S
Zn1325     O1330   2.053       .  S
Zn1325     O1333   2.013       .  S
Zn1325     O1336   2.029       .  S
Zn1325     O1327   1.935       .  S
Zn1326     O1334   1.970       .  S
Zn1326     O1337   1.985       .  S
Zn1326     O1338   1.999       .  S
Zn1326     O1327   1.899       .  S
O1328      C1340   1.264       .  A
O1329      C1341   1.294       .  A
O1330      C1342   1.276       .  A
O1331      C1340   1.294       .  A
O1332      C1342   1.272       .  A
O1333      C1341   1.278       .  A
O1334      C1343   1.271       .  A
O1335      C1344   1.276       .  A
O1336      C1343   1.275       .  A
O1337      C1344   1.272       .  A
O1338      C1345   1.272   1_545  A
O1339      C1345   1.272   1_545  A
C1340      C1603   1.490   1_545  S
C1341      C1693   1.518       .  S
C1342      C1373   1.480       .  S
C1343      C1483   1.463   1_655  S
C1344      C1383   1.493       .  S
C1345      C1403   1.484       .  S
Zn1346     O1351   1.945       .  S
Zn1346     O1355   1.996       .  S
Zn1346     O1362   1.984       .  S
Zn1346     O1350   1.896       .  S
Zn1347     O1352   2.063       .  S
Zn1347     O1354   2.155       .  S
Zn1347     O1358   2.124       .  S
Zn1347     O1350   1.938       .  S
Zn1348     O1353   1.997       .  S
Zn1348     O1356   1.977       .  S
Zn1348     O1359   1.986       .  S
Zn1348     O1350   1.889       .  S
Zn1349     O1357   2.035   1_545  S
Zn1349     O1360   2.019       .  S
Zn1349     O1361   2.055       .  S
Zn1349     O1350   1.920       .  S
O1351      C1363   1.265       .  A
O1352      C1364   1.277       .  A
O1353      C1365   1.269       .  A
O1354      C1363   1.294       .  A
O1355      C1365   1.273       .  A
O1356      C1364   1.271       .  A
O1357      C1366   1.276       .  A
O1358      C1367   1.294       .  A
O1359      C1366   1.273   1_545  A
O1360      C1367   1.279       .  A
O1361      C1368   1.278       .  A
O1362      C1368   1.271       .  A
C1363      C1543   1.490       .  S
C1365      C1433   1.482   1_655  S
C1366      C1393   1.482       .  S
C1367      C1850   1.514       .  S
C1368      C1380   1.481       .  S
C1369      C1370   1.405       .  A
C1369      C1374   1.407       .  A
C1369      H1376   1.083       .  S
C1370      C1371   1.405       .  A
C1371      C1372   1.393       .  A
C1372      C1373   1.404       .  A
C1372      H1377   1.084       .  S
C1373      C1374   1.412       .  A
C1374     Br1375   1.918       .  S
C1379      C1380   1.404       .  A
C1379      C1384   1.407       .  A
C1379      H1386   1.083       .  S
C1380      C1381   1.410       .  A
C1381      C1382   1.393       .  A
C1381     Br1388   1.924       .  S
C1382      C1383   1.407       .  A
C1382      H1387   1.083       .  S
C1383      C1384   1.418       .  A
C1384     Br1385   1.918       .  S
C1389      C1390   1.405       .  A
C1389      C1394   1.399       .  A
C1389      H1396   1.084       .  S
C1390      C1391   1.412       .  A
C1391      C1392   1.396       .  A
C1391     Br1398   1.923       .  S
C1392      C1393   1.406       .  A
C1392      H1397   1.084       .  S
C1393      C1394   1.414       .  A
C1394     Br1395   1.922       .  S
C1399      C1400   1.409       .  A
C1399      C1404   1.397       .  A
C1399      H1406   1.083       .  S
C1400      C1401   1.414       .  A
C1401      C1402   1.398       .  A
C1401     Br1408   1.922       .  S
C1402      C1403   1.408       .  A
C1402      H1407   1.083       .  S
C1403      C1404   1.412       .  A
C1404     Br1405   1.923       .  S
C1409      C1410   1.403       .  A
C1409      C1414   1.398       .  A
C1409      H1416   1.084       .  S
C1410      C1411   1.410       .  A
C1411      C1412   1.407       .  A
C1411     Br1418   1.918       .  S
C1412      C1413   1.407       .  A
C1412      H1417   1.083       .  S
C1413      C1414   1.409       .  A
C1414     Br1415   1.920       .  S
C1419      C1420   1.398       .  A
C1419      C1424   1.391       .  A
C1419      H1426   1.084       .  S
C1420      C1421   1.412       .  A
C1421      C1422   1.407       .  A
C1421     Br1428   1.919       .  S
C1422      C1423   1.409       .  A
C1422      H1427   1.083       .  S
C1423      C1424   1.418       .  A
C1424     Br1425   1.926       .  S
C1429      C1430   1.400       .  A
C1429      C1434   1.396       .  A
C1429      H1436   1.084       .  S
C1430      C1431   1.406       .  A
C1431      C1432   1.394       .  A
C1431     Br1438   1.922       .  S
C1432      C1433   1.408       .  A
C1432      H1437   1.083       .  S
C1433      C1434   1.417       .  A
C1434     Br1435   1.923       .  S
C1439      C1440   1.407       .  A
C1439      C1444   1.396       .  A
C1439      H1446   1.083       .  S
C1440      C1441   1.415       .  A
C1441      C1442   1.398       .  A
C1441     Br1448   1.923       .  S
C1442      C1443   1.404       .  A
C1442      H1447   1.084       .  S
C1443      C1444   1.409       .  A
C1444     Br1445   1.922       .  S
C1449      C1450   1.407       .  A
C1449      C1454   1.401       .  A
C1449      H1456   1.084       .  S
C1450      C1451   1.407       .  A
C1451      C1452   1.394       .  A
C1451     Br1458   1.923       .  S
C1452      C1453   1.411       .  A
C1452      H1457   1.083       .  S
C1453      C1454   1.415       .  A
C1454     Br1455   1.921       .  S
C1459      C1460   1.403       .  A
C1459      C1464   1.401       .  A
C1459      H1466   1.083       .  S
C1460      C1461   1.404       .  A
C1461      C1462   1.390       .  A
C1461     Br1468   1.920       .  S
C1462      C1463   1.403       .  A
C1462      H1467   1.084       .  S
C1463      C1464   1.411       .  A
C1464     Br1465   1.920       .  S
C1469      C1470   1.403       .  A
C1469      C1474   1.391       .  A
C1469      H1476   1.083       .  S
C1470      C1471   1.422       .  A
C1471      C1472   1.402       .  A
C1471     Br1478   1.923       .  S
C1472      C1473   1.399       .  A
C1472      H1477   1.084       .  S
C1473      C1474   1.409       .  A
C1474     Br1475   1.924       .  S
C1479      C1480   1.409       .  A
C1479      C1484   1.398       .  A
C1479      H1486   1.083       .  S
C1480      C1481   1.418       .  A
C1481      C1482   1.393       .  A
C1481     Br1488   1.924       .  S
C1482      C1483   1.398       .  A
C1482      H1487   1.084       .  S
C1483      C1484   1.406       .  A
C1484     Br1485   1.921       .  S
C1489      C1490   1.421       .  A
C1489      C1494   1.417       .  A
C1489      H1496   1.083       .  S
C1490      C1491   1.410       .  A
C1491      C1492   1.405       .  A
C1491     Br1498   1.921       .  S
C1492      C1493   1.415   1_455  A
C1492      H1497   1.083       .  S
C1493      C1494   1.406   1_655  A
C1494     Br1495   1.915   1_455  S
C1499      C1500   1.423       .  A
C1499      C1504   1.415       .  A
C1499      H1506   1.082       .  S
C1500      C1501   1.414       .  A
C1501      C1502   1.402       .  A
C1501     Br1508   1.921       .  S
C1502      C1503   1.413       .  A
C1502      H1507   1.085       .  S
C1503      C1504   1.405       .  A
C1504     Br1505   1.915   1_565  S
C1509      C1510   1.400       .  A
C1509      C1514   1.402       .  A
C1509      H1516   1.084       .  S
C1510      C1511   1.408       .  A
C1511      C1512   1.394       .  A
C1511     Br1518   1.922       .  S
C1512      C1513   1.403       .  A
C1512      H1517   1.084       .  S
C1513      C1514   1.417       .  A
C1514     Br1515   1.922       .  S
C1519      C1520   1.403       .  A
C1519      C1524   1.396       .  A
C1519      H1526   1.084       .  S
C1520      C1521   1.411       .  A
C1521      C1522   1.393       .  A
C1522      C1523   1.398       .  A
C1522      H1527   1.084       .  S
C1523      C1524   1.405       .  A
C1524     Br1525   1.913       .  S
C1529      C1530   1.408       .  A
C1529      C1534   1.395       .  A
C1529      H1536   1.083       .  S
C1530      C1531   1.418       .  A
C1531      C1532   1.399       .  A
C1531     Br1538   1.922       .  S
C1532      C1533   1.402       .  A
C1532      H1537   1.084       .  S
C1533      C1534   1.408       .  A
C1534     Br1535   1.922       .  S
C1539      C1540   1.404       .  A
C1539      C1544   1.407       .  A
C1539      H1546   1.083       .  S
C1540      C1541   1.424       .  A
C1541      C1542   1.412   1_455  A
C1541     Br1548   1.921       .  S
C1542      C1543   1.402       .  A
C1542      H1547   1.083       .  S
C1543      C1544   1.416   1_655  A
C1544     Br1545   1.919       .  S
C1549      C1550   1.408       .  A
C1549      C1554   1.414       .  A
C1549      H1556   1.083       .  S
C1550      C1551   1.430       .  A
C1551      C1552   1.406       .  A
C1551     Br1558   1.926       .  S
C1552      C1553   1.400       .  A
C1552      H1557   1.084       .  S
C1553      C1554   1.419       .  A
C1554     Br1555   1.919       .  S
C1559      C1560   1.404       .  A
C1559      C1564   1.405       .  A
C1559      H1566   1.084       .  S
C1560      C1561   1.409       .  A
C1561      C1562   1.399       .  A
C1561     Br1568   1.919       .  S
C1562      C1563   1.400       .  A
C1562      H1567   1.084       .  S
C1563      C1564   1.411       .  A
C1569      C1570   1.406       .  A
C1569      C1574   1.411       .  A
C1569      H1576   1.083       .  S
C1570      C1571   1.414       .  A
C1571      C1572   1.396       .  A
C1571     Br1578   1.922       .  S
C1572      C1573   1.400       .  A
C1572      H1577   1.084       .  S
C1573      C1574   1.414       .  A
C1574     Br1575   1.918       .  S
C1579      C1580   1.401       .  A
C1579      C1584   1.397       .  A
C1579      H1586   1.084       .  S
C1580      C1581   1.406       .  A
C1581      C1582   1.397       .  A
C1581     Br1588   1.916       .  S
C1582      C1583   1.402       .  A
C1582      H1587   1.084       .  S
C1583      C1584   1.410       .  A
C1584     Br1585   1.922       .  S
C1589      C1590   1.409       .  A
C1589      C1594   1.391       .  A
C1589      H1596   1.083       .  S
C1590      C1591   1.418       .  A
C1591      C1592   1.393       .  A
C1591     Br1598   1.924       .  S
C1592      C1593   1.397       .  A
C1592      H1597   1.084       .  S
C1593      C1594   1.403       .  A
C1594     Br1595   1.921       .  S
C1599      C1600   1.407       .  A
C1599      C1604   1.412       .  A
C1599      H1606   1.082       .  S
C1600      C1601   1.416       .  A
C1601      C1602   1.408       .  A
C1601     Br1608   1.921       .  S
C1602      C1603   1.406       .  A
C1602      H1607   1.084   1_565  S
C1603      C1604   1.414       .  A
C1604     Br1605   1.918       .  S
C1609      C1610   1.407       .  A
C1609      C1614   1.393       .  A
C1609      H1616   1.083       .  S
C1610      C1611   1.418       .  A
C1611      C1612   1.401       .  A
C1611     Br1618   1.922       .  S
C1612      C1613   1.402       .  A
C1612      H1617   1.084       .  S
C1613      C1614   1.409       .  A
C1614     Br1615   1.923       .  S
C1619      C1620   1.403       .  A
C1619      C1624   1.394       .  A
C1619      H1626   1.084       .  S
C1620      C1621   1.414       .  A
C1621      C1622   1.397       .  A
C1621     Br1628   1.922       .  S
C1622      C1623   1.399       .  A
C1622      H1627   1.084       .  S
C1623      C1624   1.406       .  A
C1624     Br1625   1.918       .  S
C1629      C1630   1.421       .  A
C1629      C1634   1.417       .  A
C1629      H1636   1.083       .  S
C1630      C1631   1.412       .  A
C1631      C1632   1.408       .  A
C1631     Br1638   1.920       .  S
C1632      C1633   1.417       .  A
C1632      H1637   1.084       .  S
C1633      C1634   1.409       .  A
C1634     Br1635   1.916       .  S
C1639      C1640   1.408       .  A
C1639      C1644   1.402       .  A
C1639      H1646   1.083       .  S
C1640      C1641   1.411       .  A
C1641      C1642   1.389       .  A
C1641     Br1648   1.923       .  S
C1642      C1643   1.404       .  A
C1642      H1647   1.084       .  S
C1643      C1644   1.410       .  A
C1644     Br1645   1.919       .  S
C1649      C1650   1.403       .  A
C1649      C1654   1.404       .  A
C1649      H1656   1.083       .  S
C1650      C1651   1.406       .  A
C1651      C1652   1.393       .  A
C1651     Br1658   1.921       .  S
C1652      C1653   1.402       .  A
C1652      H1657   1.084       .  S
C1653      C1654   1.410       .  A
C1659      C1660   1.403       .  A
C1659      C1664   1.399       .  A
C1659      H1666   1.084       .  S
C1660      C1661   1.408       .  A
C1661      C1662   1.392       .  A
C1661     Br1668   1.922       .  S
C1662      C1663   1.403       .  A
C1662      H1667   1.084       .  S
C1663      C1664   1.412       .  A
C1664     Br1665   1.919       .  S
C1669      C1670   1.414       .  A
C1669      C1674   1.417       .  A
C1669      H1676   1.083       .  S
C1670      C1671   1.411       .  A
C1671      C1672   1.410       .  A
C1672      C1673   1.410       .  A
C1672      H1677   1.084       .  S
C1673      C1674   1.410       .  A
C1674     Br1675   1.915       .  S
C1679      C1680   1.403       .  A
C1679      C1684   1.412       .  A
C1680      C1681   1.426       .  A
C1681      C1682   1.410       .  A
C1681     Br1688   1.914   1_455  S
C1682      C1683   1.399       .  A
C1682      H1687   1.083       .  S
C1683      C1684   1.425       .  A
C1684     Br1685   1.923   1_556  S
C1689      C1690   1.411       .  A
C1689      C1694   1.407       .  A
C1689      H1696   1.084       .  S
C1690      C1691   1.405       .  A
C1691      C1692   1.414       .  A
C1691     Br1698   1.916   1_655  S
C1692      C1693   1.422       .  A
C1692      H1697   1.083       .  S
C1693      C1694   1.416       .  A
C1694     Br1695   1.920       .  S
C1699      C1700   1.421       .  A
C1699      C1704   1.410       .  A
C1699      H1706   1.083   1_455  S
C1700      C1701   1.414       .  A
C1701      C1702   1.404       .  A
C1701     Br1708   1.922       .  S
C1702      C1703   1.411       .  A
C1702      H1707   1.085       .  S
C1703      C1704   1.402       .  A
C1704     Br1705   1.916       .  S
C1709      C1710   1.403       .  A
C1709      C1714   1.403       .  A
C1709      H1716   1.084       .  S
C1710      C1711   1.406       .  A
C1711      C1712   1.390       .  A
C1711     Br1718   1.923       .  S
C1712      C1713   1.400       .  A
C1712      H1717   1.079       .  S
C1713      C1714   1.413       .  A
C1714     Br1715   1.919       .  S
C1719      C1720   1.404       .  A
C1719      C1724   1.404       .  A
C1719      H1726   1.084       .  S
C1720      C1721   1.409       .  A
C1721      C1722   1.392       .  A
C1721     Br1728   1.922       .  S
C1722      C1723   1.403       .  A
C1722      H1727   1.084       .  S
C1723      C1724   1.416       .  A
C1724     Br1725   1.921       .  S
C1729      C1730   1.408       .  A
C1729      C1734   1.420       .  A
C1729      H1736   1.083       .  S
C1730      C1731   1.417       .  A
C1731      C1732   1.406       .  A
C1731     Br1738   1.923       .  S
C1732      C1733   1.408       .  A
C1732      H1737   1.084       .  S
C1733      C1734   1.420       .  A
C1734     Br1735   1.915       .  S
C1739      C1740   1.418       .  A
C1739      C1744   1.415       .  A
C1739      H1746   1.083       .  S
C1740      C1741   1.410       .  A
C1741      C1742   1.410       .  A
C1741     Br1748   1.919       .  S
C1742      C1743   1.418       .  A
C1742      H1747   1.084       .  S
C1743      C1744   1.411       .  A
C1744     Br1745   1.917       .  S
C1749      C1750   1.405       .  A
C1749      C1754   1.399       .  A
C1749      H1756   1.083       .  S
C1750      C1751   1.412       .  A
C1751      C1752   1.390       .  A
C1751     Br1758   1.924       .  S
C1752      C1753   1.401       .  A
C1752      H1757   1.084       .  S
C1753      C1754   1.411       .  A
C1754     Br1755   1.921       .  S
C1759      C1760   1.411       .  A
C1759      C1764   1.407       .  A
C1760      C1761   1.406       .  A
C1761      C1762   1.413       .  A
C1761     Br1768   1.916       .  S
C1762      C1763   1.419       .  A
C1762      H1767   1.083       .  S
C1763      C1764   1.416       .  A
C1764     Br1765   1.921       .  S
C1769      C1774   1.397       .  A
C1769      H1776   1.084       .  S
C1770      C1771   1.408       .  A
C1771      C1772   1.395       .  A
C1771     Br1778   1.922       .  S
C1772      H1777   1.083       .  S
C1773      C1774   1.414       .  A
C1774     Br1775   1.922       .  S
C1779      C1780   1.410       .  A
C1779      C1784   1.408       .  A
C1779      H1786   1.084       .  S
C1780      C1781   1.405       .  A
C1781      C1782   1.409       .  A
C1781     Br1788   1.916       .  S
C1782      C1783   1.416       .  A
C1783      C1784   1.414       .  A
C1784     Br1785   1.918       .  S
C1789      C1790   1.400       .  A
C1789      C1794   1.400       .  A
C1789      H1796   1.084       .  S
C1790      C1791   1.407       .  A
C1791      C1792   1.396       .  A
C1791     Br1798   1.920       .  S
C1792      C1793   1.402       .  A
C1792      H1797   1.084       .  S
C1793      C1794   1.413       .  A
C1794     Br1795   1.920       .  S
C1799      C1800   1.400       .  A
C1799      C1804   1.400       .  A
C1799      H1806   1.081       .  S
C1800      C1801   1.409       .  A
C1801      C1802   1.395       .  A
C1801     Br1808   1.922       .  S
C1802      C1803   1.404       .  A
C1802      H1807   1.084       .  S
C1803      C1804   1.415       .  A
C1804     Br1805   1.921       .  S
C1809      C1810   1.419       .  A
C1809      C1814   1.409       .  A
C1809      H1816   1.083       .  S
C1810      C1811   1.409       .  A
C1811      C1812   1.418       .  A
C1811     Br1818   1.915   1_545  S
C1812      C1813   1.422       .  A
C1812      H1817   1.083       .  S
C1813      C1814   1.410       .  A
C1814     Br1815   1.920       .  S
C1819      C1820   1.408       .  A
C1819      C1824   1.397       .  A
C1819      H1826   1.083       .  S
C1820      C1821   1.412       .  A
C1821      C1822   1.391       .  A
C1821     Br1828   1.924       .  S
C1822      C1823   1.408       .  A
C1822      H1827   1.083       .  S
C1823      C1824   1.412       .  A
C1824     Br1825   1.923       .  S
C1829      C1830   1.410       .  A
C1829      C1834   1.420       .  A
C1829      H1836   1.083       .  S
C1830      C1831   1.433       .  A
C1831      C1832   1.405       .  A
C1831     Br1838   1.927   1_565  S
C1832      C1833   1.396       .  A
C1832      H1837   1.084       .  S
C1833      C1834   1.419       .  A
C1834     Br1835   1.915       .  S
C1839      C1840   1.405       .  A
C1839      C1844   1.395       .  A
C1839      H1846   1.083       .  S
C1840      C1841   1.422       .  A
C1841      C1842   1.403       .  A
C1841     Br1848   1.924       .  S
C1842      C1843   1.401       .  A
C1842      H1847   1.084       .  S
C1843      C1844   1.413       .  A
C1844     Br1845   1.923       .  S
C1849      C1850   1.419       .  A
C1849      C1854   1.415       .  A
C1849      H1856   1.083       .  S
C1850      C1851   1.414       .  A
C1851      C1852   1.405       .  A
C1851     Br1858   1.923       .  S
C1852      C1853   1.417       .  A
C1852      H1857   1.083       .  S
C1853      C1854   1.410       .  A
C1854     Br1855   1.917   1_545  S
C1859      C1864   1.394       .  A
C1859      H1866   1.084       .  S
C1860      C1861   1.405       .  A
C1861      C1862   1.394       .  A
C1861     Br1868   1.921       .  S
C1862      H1867   1.083       .  S
C1863      C1864   1.412       .  A
C1864     Br1865   1.922       .  S
C1869      C1870   1.416       .  A
C1869      C1874   1.408       .  A
C1869      H1876   1.083       .  S
C1870      C1871   1.407       .  A
C1871      C1872   1.415       .  A
C1871     Br1878   1.916       .  S
C1872      C1873   1.421       .  A
C1872      H1877   1.083       .  S
C1873      C1874   1.410       .  A
C1874     Br1875   1.920       .  S
C1879      C1880   1.402       .  A
C1879      C1884   1.396       .  A
C1879      H1886   1.084       .  S
C1880      C1881   1.409       .  A
C1881      C1882   1.397       .  A
C1881     Br1888   1.921       .  S
C1882      C1883   1.403       .  A
C1882      H1887   1.084       .  S
C1883      C1884   1.407       .  A
C1884     Br1885   1.917   1_545  S
C1889      C1890   1.399       .  A
C1889      C1894   1.394       .  A
C1889      H1896   1.084       .  S
C1890      C1891   1.405       .  A
C1891      C1892   1.396       .  A
C1891     Br1898   1.920   1_545  S
C1892      C1893   1.406       .  A
C1892      H1897   1.084       .  S
C1893      C1894   1.412       .  A
C1894     Br1895   1.921       .  S
C1899      C1900   1.406       .  A
C1899      C1904   1.396       .  A
C1899      H1906   1.083       .  S
C1901      C1902   1.400       .  A
C1901     Br1908   1.922       .  S
C1902      C1903   1.401       .  A
C1902      H1907   1.084       .  S
C1904     Br1905   1.923       .  S
