geometry optimzed in LAMMPS
_audit_creation_date              2020-12-01 
_audit_creation_method            'lammps2cif' 
_symmetry_space_group_name_H-M    'P1' 
_symmetry_Int_Tables_number       1 
_symmetry_cell_setting            triclinic 
loop_ 
_symmetry_equiv_pos_as_xyz 
  x,y,z 
_cell_length_a                    64.14062238 
_cell_length_b                    63.98169922106294 
_cell_length_c                    25.084883450423245 
_cell_angle_alpha                 90.08890904391598 
_cell_angle_beta                  90.10170762662607 
_cell_angle_gamma                 120.22978889722899 
loop_ 
_atom_site_label 
_atom_site_type_symbol 
_atom_site_fract_x 
_atom_site_fract_y 
_atom_site_fract_z 
_atom_site_charge 
O1          O  0.56440930  0.48077894  0.19622553    -0.84700
O2          O  0.56574250  0.51302660  0.11969030    -0.81800
C3          C  0.54715518  0.51498064  0.12684636     0.98700
O4          O  0.54429778  0.52264464  0.17089872    -0.81800
O5          O  0.55033676  0.53708308  0.27694722    -0.84400
C6          C  0.54236025  0.51842413  0.30638515     1.03300
O7          O  0.55227334  0.50578708  0.30592579    -0.77200
O8          O  0.58004786  0.48696366  0.27597476    -0.77400
C9          C  0.56475806  0.47281243  0.24204359     1.03200
O10         O  0.61701573  0.51182082  0.21323666    -0.84700
O11         O  0.61566787  0.54508321  0.14674670    -0.81800
C12         C  0.61219324  0.56219069  0.13426283     0.98800
O13         O  0.59254049  0.56130004  0.14633239    -0.81800
O14         O  0.59954549  0.57329290  0.25041907    -0.84400
C15         C  0.60144328  0.57283763  0.30010427     1.03200
O16         O  0.59375971  0.55270811  0.32325117    -0.77200
O17         O  0.62171039  0.53534023  0.28121513    -0.77400
C18         C  0.63026949  0.52617601  0.25005582     1.03200
Cr19       Cr  0.59008818  0.51333521  0.17252119     1.93700
Cr20       Cr  0.57227503  0.54699291  0.21207673     1.93200
Cr21       Cr  0.58682319  0.52065625  0.29174679     1.39100
O22         O  0.58292639  0.52698939  0.22521307    -1.22500
O23         O  0.36288642  0.48733338  0.72516593    -0.84700
O24         O  0.36639140  0.45558176  0.79241277    -0.81800
C25         C  0.37082284  0.43925882  0.80609665     0.98700
O26         O  0.39096792  0.44097346  0.79429547    -0.81800
O27         O  0.38575778  0.42759387  0.69048035    -0.84400
C28         C  0.38381659  0.42787899  0.64076927     1.03300
O29         O  0.38871842  0.44745277  0.61776213    -0.77200
O30         O  0.35824900  0.46266120  0.65981532    -0.77400
C31         C  0.34980829  0.47284487  0.68844249     1.03200
O32         O  0.41484281  0.52027472  0.74033444    -0.84700
O33         O  0.41531763  0.48946473  0.81932704    -0.81800
C34         C  0.43488213  0.48932200  0.81291136     0.98800
O35         O  0.43866451  0.48206341  0.76926904    -0.81800
O36         O  0.43348444  0.46693643  0.66276782    -0.84400
C37         C  0.43871371  0.48440674  0.63087086     1.03200
O38         O  0.42755654  0.49576502  0.63321086    -0.77200
O39         O  0.39793099  0.51199358  0.66175789    -0.77400
C40         C  0.41312795  0.52727465  0.69428667     1.03200
Cr41       Cr  0.39056674  0.48746661  0.76585328     1.93700
Cr42       Cr  0.41148254  0.45592776  0.72843030     1.93200
Cr43       Cr  0.39322697  0.47891932  0.64788493     1.39100
O44         O  0.39843748  0.47392732  0.71423365    -1.22500
O45         O  0.56478178  0.75692485  0.52770276    -0.84700
O46         O  0.59852734  0.75820913  0.45589506    -0.81800
C47         C  0.61758308  0.77815190  0.46570423     0.98700
O48         O  0.62707253  0.78175570  0.51127409    -0.81800
O49         O  0.63448900  0.77582358  0.61796684    -0.84400
C50         C  0.62204595  0.78162971  0.64743122     1.03300
O51         O  0.59940801  0.76962004  0.64543449    -0.77200
O52         O  0.55412914  0.74078488  0.60713180    -0.77400
C53         C  0.55486809  0.75547734  0.57214012     1.03200
O54         O  0.54523854  0.70529339  0.54270628    -0.84700
O55         O  0.58295995  0.70894360  0.48415181    -0.81800
C56         C  0.60435618  0.71409315  0.47473846     0.98800
O57         O  0.62189443  0.73499355  0.48579232    -0.81800
O58         O  0.62641616  0.72835070  0.59017918    -0.84400
C59         C  0.62177364  0.72451694  0.63887728     1.03200
O60         O  0.60702218  0.72965781  0.66028297    -0.77200
O61         O  0.56288994  0.70023233  0.61191250    -0.77400
C62         C  0.54563270  0.69178486  0.57925086     1.03200
Cr63       Cr  0.57415710  0.73300512  0.50620458     1.93700
Cr64       Cr  0.62519295  0.75445455  0.55196671     1.93200
Cr65       Cr  0.58161114  0.73528443  0.62642315     1.39100
O66         O  0.59381957  0.74113071  0.56162527    -1.22500
O67         O  0.77438897  0.96006394  0.05962462    -0.84700
O68         O  0.74115770  0.95862787  0.13042604    -0.81800
C69         C  0.72079039  0.95382721  0.14790541     0.98700
O70         O  0.70267077  0.93278211  0.14123652    -0.81800
O71         O  0.69237423  0.93790190  0.03986780    -0.84400
C72         C  0.69323170  0.93995027  0.99016596     1.03300
O73         O  0.70579262  0.93343123  0.96345655    -0.77200
O74         O  0.75277636  0.96274107  0.99563686    -0.77400
C75         C  0.77179422  0.97230730  0.02314378     1.03200
O76         O  0.75595111  0.90890064  0.07940344    -0.84700
O77         O  0.72670751  0.90997349  0.16106731    -0.81800
C78         C  0.70684297  0.89016937  0.15709480     0.98800
O79         O  0.69474143  0.88520410  0.11455989    -0.81800
O80         O  0.68042660  0.88973592  0.01099874    -0.84400
C81         C  0.69028233  0.88271174  0.97704173     1.03200
O82         O  0.71282962  0.89256937  0.97495354    -0.77200
O83         O  0.76050559  0.92185426  0.99710538    -0.77400
C84         C  0.76271148  0.90877397  0.03209975     1.03200
Cr85       Cr  0.74803944  0.93360060  0.10438231     1.93700
Cr86       Cr  0.69471233  0.91197564  0.07537145     1.93200
Cr87       Cr  0.73257439  0.92753620  0.98768728     1.39100
O88         O  0.72502311  0.92418163  0.05579377    -1.22500
O89         O  0.89665749  0.42587224  0.21311809    -0.84700
O90         O  0.92957380  0.42809799  0.13624107    -0.81800
C91         C  0.94978022  0.44689508  0.14560594     0.98700
O92         O  0.95961176  0.44937247  0.19061275    -0.81800
O93         O  0.96690373  0.43853962  0.29584489    -0.84400
C94         C  0.95473188  0.44302065  0.32902399     1.03300
O95         O  0.93235475  0.43336123  0.32404673    -0.77200
O96         O  0.88672205  0.40709921  0.28988643    -0.77400
C97         C  0.88749942  0.42313547  0.25910999     1.03200
O98         O  0.87567812  0.37383225  0.21805290    -0.84700
O99         O  0.91260035  0.37805935  0.15308736    -0.81800
C100        C  0.93379247  0.38327184  0.14038418     0.98800
O101        O  0.95175814  0.40310037  0.15556859    -0.81800
O102        O  0.95609315  0.39178066  0.25718508    -0.84400
C103        C  0.95178259  0.38638267  0.30563396     1.03200
O104        O  0.93783910  0.39158634  0.33056685    -0.77200
O105        O  0.89265457  0.36549233  0.28418517    -0.77400
C106        C  0.87495920  0.35942325  0.25363248     1.03200
Cr107      Cr  0.90493075  0.40193946  0.18366980     1.93700
Cr108      Cr  0.95625572  0.42001123  0.22576016     1.93200
Cr109      Cr  0.91326127  0.39980139  0.30233830     1.39100
O110        O  0.92493292  0.40731047  0.23720783    -1.22500
O111        O  0.09401469  0.62884376  0.74503380    -0.84700
O112        O  0.05831290  0.61040946  0.82004048    -0.81800
C113        C  0.04231294  0.61620856  0.81112252     0.98700
O114        O  0.02707031  0.60626271  0.77405396    -0.81800
O115        O  0.01138455  0.58987149  0.67393587    -0.84400
C116        C  0.02452372  0.60930759  0.64927750     0.97900
O117        O  0.04676537  0.61682953  0.64382332    -0.77200
O118        O  0.09142547  0.62050797  0.66011043    -0.77400
C119        C  0.10157927  0.63493182  0.69804380     1.03200
O120        O  0.08922548  0.58062398  0.73062928    -0.84700
O121        O  0.05381113  0.56276457  0.80879272    -0.81800
C122        C  0.03262358  0.55449697  0.82617644     0.98800
O123        O  0.01916275  0.56104386  0.80474935    -0.81800
O124        O  0.01041027  0.54569445  0.69882675    -0.84400
C125        C  0.01311021  0.54640031  0.64890098     1.03200
O126        O  0.02714929  0.56597081  0.62563573    -0.77200
O127        O  0.07007025  0.57019068  0.65299578    -0.77400
C128        C  0.08431885  0.56926275  0.68632974     1.03200
Cr129      Cr  0.07216861  0.59507988  0.77162805     1.93700
Cr130      Cr  0.01954880  0.57646526  0.73660060     1.93200
Cr131      Cr  0.05826890  0.59313399  0.65169584     1.39100
O132        O  0.05029674  0.58822820  0.72046055    -1.22500
O133        O  0.84652401  0.76226350  0.85960906    -0.84700
O134        O  0.81325610  0.73278782  0.78132734    -0.81800
C135        C  0.81321195  0.71300251  0.78441850     0.98700
O136        O  0.80666121  0.70098299  0.82696724    -0.81800
O137        O  0.79351184  0.68851347  0.93243662    -0.84400
C138        C  0.81231108  0.69903925  0.96151540     1.03300
O139        O  0.82392906  0.72174790  0.96541869    -0.77200
O140        O  0.84050405  0.76914652  0.94171833    -0.77400
C141        C  0.85470596  0.76969870  0.90604598     1.03200
O142        O  0.81478716  0.78146169  0.88569267    -0.84700
O143        O  0.78053975  0.74766892  0.81881277    -0.81800
C144        C  0.76381069  0.72698306  0.80467128     0.98800
O145        O  0.76612773  0.70856926  0.81132726    -0.81800
O146        O  0.75500930  0.69898589  0.91617408    -0.84400
C147        C  0.75654116  0.70099448  0.96605088     1.03200
O148        O  0.77687914  0.71400466  0.98800466    -0.77200
O149        O  0.79213269  0.76072091  0.95287548    -0.77400
C150        C  0.80090783  0.77935503  0.92397448     1.03200
Cr151      Cr  0.81315564  0.75458782  0.83972422     1.93700
Cr152      Cr  0.78184538  0.70149693  0.87281763     1.93200
Cr153      Cr  0.80780177  0.74087104  0.95716187     1.39100
O154        O  0.80084393  0.73216098  0.88981765    -1.22500
O155        O  0.83531602  0.55182141  0.40219527    -0.84700
O156        O  0.87049718  0.58935244  0.46156676    -0.81800
C157        C  0.88769471  0.61046753  0.47128540     0.98700
O158        O  0.88614155  0.62866966  0.45686343    -0.81800
O159        O  0.89787723  0.63044735  0.35345398    -0.84400
C160        C  0.89701887  0.62599587  0.30460750     1.03300
O161        O  0.87696604  0.61185373  0.28265607    -0.77200
O162        O  0.85888448  0.56794282  0.33344332    -0.77400
C163        C  0.84924391  0.55119555  0.36712173     1.03200
O164        O  0.80542935  0.57432863  0.41171604    -0.84700
O165        O  0.83905142  0.60810251  0.48322328    -0.81800
C166        C  0.84061331  0.62824613  0.47271687     0.98800
O167        O  0.84767008  0.63752665  0.42726125    -0.81800
O168        O  0.86206226  0.64241166  0.31967611    -0.84400
C169        C  0.84455659  0.63034829  0.28770283     1.03200
O170        O  0.83107981  0.60794013  0.29362912    -0.77200
O171        O  0.81112628  0.56254694  0.33395957    -0.77400
C172        C  0.79725038  0.56471987  0.36663879     1.03200
Cr173      Cr  0.83828682  0.58215739  0.43593134     1.93700
Cr174      Cr  0.87168711  0.63248285  0.38870160     1.93200
Cr175      Cr  0.84497509  0.58828620  0.31574345     1.39100
O176        O  0.85151124  0.60117010  0.38011294    -1.22500
O177        O  0.69628077  0.15308417  0.39302706    -0.84700
O178        O  0.69906155  0.12209585  0.46415570    -0.81800
C179        C  0.70413792  0.10655496  0.48076752     0.98700
O180        O  0.72519009  0.10972644  0.47386068    -0.81800
O181        O  0.72201883  0.09480578  0.37242039    -0.84400
C182        C  0.71894383  0.09347781  0.32286405     1.03300
O183        O  0.72419638  0.11241631  0.29672918    -0.77200
O184        O  0.69325500  0.12772231  0.33117490    -0.77400
C185        C  0.68408397  0.13806068  0.35655185     1.03200
O186        O  0.74704153  0.18704123  0.41207494    -0.84700
O187        O  0.74684050  0.15763243  0.49541813    -0.81800
C188        C  0.76703560  0.15863874  0.49201929     0.98800
O189        O  0.77229267  0.15155471  0.44993510    -0.81800
O190        O  0.76961600  0.13451008  0.34599793    -0.84400
C191        C  0.77536937  0.15153254  0.31261569     1.03200
O192        O  0.76281071  0.16138720  0.30802259    -0.77200
O193        O  0.73240702  0.17742501  0.33120182    -0.77400
C194        C  0.74606171  0.19333433  0.36471554     1.03200
Cr195      Cr  0.72312154  0.15423088  0.43798200     1.93700
Cr196      Cr  0.74651300  0.12408891  0.40917836     1.93200
Cr197      Cr  0.72833067  0.14435151  0.32177286     1.39100
O198        O  0.73283340  0.14087681  0.38967416    -1.22500
O199        O  0.89638398  0.15017909  0.87112646    -0.84700
O200        O  0.89675252  0.18217152  0.79467455    -0.81800
C201        C  0.87834474  0.18433268  0.80289834     0.98700
O202        O  0.87585815  0.19210017  0.84723628    -0.81800
O203        O  0.88385370  0.20836000  0.95348858    -0.84400
C204        C  0.87712695  0.19032217  0.98448912     1.03300
O205        O  0.88569208  0.17668890  0.97886305    -0.77200
O206        O  0.91268651  0.15728424  0.95056481    -0.77400
C207        C  0.89755082  0.14270368  0.91700232     1.03200
O208        O  0.94863696  0.18085489  0.88549547    -0.84700
O209        O  0.94703225  0.21408358  0.81904455    -0.81800
C210        C  0.94350954  0.23105305  0.80568629     0.98800
O211        O  0.92377649  0.23007109  0.81779845    -0.81800
O212        O  0.93263410  0.24364288  0.92087804    -0.84400
C213        C  0.93527258  0.24370975  0.97039892     1.03200
O214        O  0.92771593  0.22380707  0.99454594    -0.77200
O215        O  0.95457546  0.20520999  0.95267389    -0.77400
C216        C  0.96218996  0.19486126  0.92238357     1.03200
Cr217      Cr  0.92163370  0.18257454  0.84593391     1.93700
Cr218      Cr  0.90453086  0.21690934  0.88565615     1.93200
Cr219      Cr  0.91996413  0.19119488  0.96458606     1.39100
O220        O  0.91529598  0.19689618  0.89847164    -1.22500
O221        O  0.17628939  0.42799489  0.52267643    -0.84700
O222        O  0.14444343  0.39438287  0.44757625    -0.81800
C223        C  0.14475687  0.37496610  0.45617267     0.98700
O224        O  0.13910172  0.36539228  0.50171372    -0.81800
O225        O  0.12365800  0.35643172  0.60852441    -0.84400
C226        C  0.14108481  0.36906734  0.64023648     1.03300
O227        O  0.15277290  0.39163940  0.63578341    -0.77200
O228        O  0.16908086  0.43719851  0.60184894    -0.77400
C229        C  0.18385211  0.43704442  0.56846893     1.03200
O230        O  0.14336930  0.44667871  0.53741181    -0.84700
O231        O  0.10999801  0.40889009  0.47489638    -0.81800
C232        C  0.09407538  0.38732723  0.46389810     0.98800
O233        O  0.09787959  0.37008493  0.47389339    -0.81800
O234        O  0.08478425  0.36429209  0.57713579    -0.84400
C235        C  0.08489143  0.36854130  0.62596216     1.03200
O236        O  0.10457859  0.38299154  0.64913860    -0.77200
O237        O  0.11971750  0.42747326  0.60446662    -0.77400
C238        C  0.12917860  0.44550784  0.57417868     1.03200
Cr239      Cr  0.14291668  0.41822419  0.49897428     1.93700
Cr240      Cr  0.11290567  0.36629845  0.54107210     1.93200
Cr241      Cr  0.13610367  0.40911302  0.61816833     1.39100
O242        O  0.13064879  0.39773437  0.55271764    -1.22500
O243        O  0.16882274  0.21578145  0.05215316    -0.84700
O244        O  0.20128449  0.25095185  0.12072417    -0.81800
C245        C  0.21688615  0.27190258  0.13639079     0.98700
O246        O  0.21350869  0.28959425  0.12883161    -0.81800
O247        O  0.22770068  0.29943508  0.02674385    -0.84400
C248        C  0.22861254  0.29770328  0.97707062     1.03300
O249        O  0.20957551  0.28353623  0.95136643    -0.77200
O250        O  0.19285956  0.23667542  0.98724622    -0.77400
C251        C  0.18341371  0.21784891  0.01546346     1.03200
O252        O  0.13621112  0.23455589  0.07148965    -0.84700
O253        O  0.16676222  0.26460582  0.15189358    -0.81800
C254        C  0.16589721  0.28390774  0.14696900     0.98800
O255        O  0.17244240  0.29539880  0.10373610    -0.81800
O256        O  0.18946077  0.30865533  0.99996976    -0.84400
C257        C  0.17235913  0.29773394  0.96667542     1.03200
O258        O  0.16146642  0.27508162  0.96313908    -0.77200
O259        O  0.14375933  0.22833831  0.98986443    -0.77400
C260        C  0.12899178  0.22780413  0.02425918     1.03200
Cr261      Cr  0.16894690  0.24286295  0.09563395     1.93700
Cr262      Cr  0.19928687  0.29600008  0.06353213     1.93200
Cr263      Cr  0.17733476  0.25640653  0.97787449     1.39100
O264        O  0.18189347  0.26522781  0.04555616    -1.22500
O265        O  0.23242632  0.80871593  0.54064707    -0.84700
O266        O  0.23165706  0.84115310  0.46794989    -0.81800
C267        C  0.21265864  0.84205382  0.47764523     0.98700
O268        O  0.21000292  0.84922265  0.52256235    -0.81800
O269        O  0.21708906  0.86279848  0.62969809    -0.84400
C270        C  0.21081021  0.84434982  0.65907269     1.03300
O271        O  0.22068678  0.83183730  0.65374307    -0.77200
O272        O  0.24898896  0.81453039  0.61938424    -0.77400
C273        C  0.23379399  0.80039880  0.58534719     1.03200
O274        O  0.28456952  0.84032737  0.55557133    -0.84700
O275        O  0.28177946  0.87426032  0.49373372    -0.81800
C276        C  0.27763594  0.89117731  0.48374352     0.98800
O277        O  0.25747191  0.88902130  0.49637997    -0.81800
O278        O  0.26548346  0.90062136  0.60083833    -0.84400
C279        C  0.26818139  0.89948548  0.65004539     1.03200
O280        O  0.26135644  0.87917396  0.67165706    -0.77200
O281        O  0.28971695  0.86322369  0.62502663    -0.77400
C282        C  0.29782893  0.85379390  0.59340698     1.03200
Cr283      Cr  0.25702939  0.84179593  0.51795990     1.93700
Cr284      Cr  0.23815144  0.87383680  0.56295761     1.93200
Cr285      Cr  0.25498629  0.84772650  0.63778568     1.39100
O286        O  0.24991779  0.85445190  0.57271249    -1.22500
O287        O  0.03246030  0.82105392  0.06944727    -0.84700
O288        O  0.03345437  0.78766079  0.13681682    -0.81800
C289        C  0.03786584  0.77126610  0.15052240     0.98700
O290        O  0.05900978  0.77469897  0.14528328    -0.81800
O291        O  0.05473056  0.76130000  0.04262221    -0.84400
C292        C  0.05278521  0.76094826  0.99282920     1.03300
O293        O  0.05919488  0.78048963  0.96809669    -0.77200
O294        O  0.02928742  0.79690695  0.00422618    -0.77400
C295        C  0.02022978  0.80675726  0.03180117     1.03200
O296        O  0.08346876  0.85374041  0.09123457    -0.84700
O297        O  0.08202095  0.82167229  0.17088785    -0.81800
C298        C  0.10165377  0.82141152  0.16697177     0.98800
O299        O  0.10664514  0.81494729  0.12362937    -0.81800
O300        O  0.10306709  0.79891046  0.01853036    -0.84400
C301        C  0.11003793  0.81639292  0.98611357     1.03200
O302        O  0.09929270  0.82825480  0.98389101    -0.77200
O303        O  0.06987556  0.84596498  0.00915365    -0.77400
C304        C  0.08301869  0.86114515  0.04459211     1.03200
Cr305      Cr  0.05867339  0.82035363  0.11395919     1.93700
Cr306      Cr  0.08022444  0.78903210  0.08128089     1.93200
Cr307      Cr  0.06453232  0.81251832  0.99633580     1.39100
O308        O  0.06812095  0.80747534  0.06386912    -1.22500
O309        O  0.50880690  0.08907150  0.19980774    -0.84700
O310        O  0.47544448  0.05421175  0.12986437    -0.81800
C311        C  0.47518529  0.03463020  0.14015455     0.98700
O312        O  0.46919908  0.02545562  0.18592854    -0.81800
O313        O  0.45639157  0.01962314  0.29384967    -0.84400
C314        C  0.47490141  0.03249593  0.32268857     1.03300
O315        O  0.48696748  0.05489209  0.31565823    -0.77200
O316        O  0.50329323  0.09997443  0.27888868    -0.77400
C317        C  0.51717186  0.09897936  0.24442901     1.03200
O318        O  0.47715587  0.10896484  0.21516111    -0.84700
O319        O  0.44243061  0.07062533  0.15616484    -0.81800
C320        C  0.42592096  0.04920362  0.14628197     0.98800
O321        O  0.42849872  0.03150869  0.15992383    -0.81800
O322        O  0.41809196  0.02888529  0.26464652    -0.84400
C323        C  0.41928270  0.03311985  0.31373218     1.03200
O324        O  0.43953663  0.04762938  0.33468087    -0.77200
O325        O  0.45512998  0.09198051  0.28578674    -0.77400
C326        C  0.46491674  0.10966170  0.25434125     1.03200
Cr327      Cr  0.47527531  0.07945470  0.17884253     1.93700
Cr328      Cr  0.44463721  0.02864261  0.22656427     1.93200
Cr329      Cr  0.47061185  0.07275843  0.29914950     1.39100
O330        O  0.46350687  0.06017355  0.23471740    -1.22500
O331        O  0.50566820  0.88253510  0.73189853    -0.84700
O332        O  0.53634384  0.91683800  0.80410102    -0.81800
C333        C  0.55124404  0.93764886  0.82190585     0.98700
O334        O  0.54740937  0.95508066  0.81535804    -0.81800
O335        O  0.56343651  0.96745557  0.71410232    -0.84400
C336        C  0.56470128  0.96630418  0.66436204     1.03300
O337        O  0.54601850  0.95203247  0.63773828    -0.77200
O338        O  0.52974492  0.90446003  0.66757285    -0.77400
C339        C  0.51981679  0.88510335  0.69394817     1.03200
O340        O  0.47141414  0.89889848  0.75020137    -0.84700
O341        O  0.50013191  0.92815192  0.83382769    -0.81800
C342        C  0.49871978  0.94715199  0.83023018     0.98800
O343        O  0.50591446  0.95966798  0.78840359    -0.81800
O344        O  0.52468596  0.97551800  0.68662969    -0.84400
C345        C  0.50802334  0.96487206  0.65232349     1.03200
O346        O  0.49744232  0.94227828  0.64734382    -0.77200
O347        O  0.48079012  0.89498257  0.66846659    -0.77400
C348        C  0.46507182  0.89242752  0.70237950     1.03200
Cr349      Cr  0.50417062  0.90814624  0.77672576     1.93700
Cr350      Cr  0.53390435  0.96208101  0.74967534     1.93200
Cr351      Cr  0.51390778  0.92397604  0.66044306     1.39100
O352        O  0.51746516  0.93149686  0.72885192    -1.22500
O353        O  0.43262445  0.29594216  0.39803702    -0.84700
O354        O  0.39545794  0.27907502  0.46902548    -0.81800
C355        C  0.38011446  0.28524915  0.45520729     0.98700
O356        O  0.36404452  0.27333921  0.42040035    -0.81800
O357        O  0.34618759  0.24930201  0.32451227    -0.84400
C358        C  0.35651709  0.26921830  0.30137516     1.03300
O359        O  0.37905200  0.27956261  0.29517847    -0.77200
O360        O  0.42623396  0.29118734  0.31185075    -0.77400
C361        C  0.43809406  0.30381331  0.35107356     1.03200
O362        O  0.42734440  0.24802965  0.38823653    -0.84700
O363        O  0.39155581  0.23081937  0.46485631    -0.81800
C364        C  0.37111789  0.22377663  0.48524042     0.98800
O365        O  0.35774169  0.23045275  0.46422361    -0.81800
O366        O  0.35000597  0.21021182  0.35858443    -0.84400
C367        C  0.35319797  0.20979958  0.30853317     1.03200
O368        O  0.36690422  0.22896822  0.28289308    -0.77200
O369        O  0.41290479  0.24183793  0.30610108    -0.77400
C370        C  0.42549986  0.23940282  0.34157223     1.03200
Cr371      Cr  0.40992982  0.26271938  0.42561440     1.93700
Cr372      Cr  0.35721327  0.24178981  0.39090859     1.93200
Cr373      Cr  0.39567162  0.26009546  0.30493396     1.39100
O374        O  0.38812895  0.25487004  0.37391506    -1.22500
O375        O  0.23453457  0.09041769  0.86262185    -0.84700
O376        O  0.26707070  0.08961074  0.78771005    -0.81800
C377        C  0.28750312  0.10848937  0.79571306     0.98700
O378        O  0.29733058  0.11185103  0.84109188    -0.81800
O379        O  0.30483825  0.10404981  0.94985354    -0.84400
C380        C  0.29302006  0.10988124  0.98128258     1.03300
O381        O  0.27090286  0.10138309  0.97353539    -0.77200
O382        O  0.22465368  0.07435050  0.94201111    -0.77400
C383        C  0.22567265  0.08957598  0.90825798     1.03200
O384        O  0.21265322  0.03791965  0.87712421    -0.84700
O385        O  0.24883456  0.03966799  0.81388737    -0.81800
C386        C  0.26977147  0.04368504  0.80287212     0.98800
O387        O  0.28817804  0.06392367  0.81465503    -0.81800
O388        O  0.29263528  0.05587858  0.91845287    -0.84400
C389        C  0.28876207  0.05258354  0.96762030     1.03200
O390        O  0.27542081  0.05927984  0.99013425    -0.77200
O391        O  0.23026206  0.03205421  0.94557162    -0.77400
C392        C  0.21251107  0.02432884  0.91440362     1.03200
Cr393      Cr  0.24207412  0.06501518  0.83881849     1.93700
Cr394      Cr  0.29348126  0.08342550  0.88168085     1.93200
Cr395      Cr  0.25103865  0.06698955  0.95813140     1.39100
O396        O  0.26230938  0.07186294  0.89271889    -1.22500
C397        C  0.33584030  0.19386492  0.61279521    -0.13700
C398        C  0.34147162  0.17570457  0.62235115     0.16700
C399        C  0.35795780  0.17400847  0.58767152     0.03000
C400        C  0.36840721  0.19034502  0.54466100    -0.12200
C401        C  0.36216584  0.20812667  0.53420624    -0.03300
C402        C  0.34569921  0.20973804  0.56943224     0.02200
C403        C  0.32890407  0.15824084  0.66719643     0.09000
N404        N  0.36410756  0.15565517  0.59534261     0.65400
H405        H  0.38074811  0.18851339  0.51823644     0.18300
N406        N  0.33862230  0.22743806  0.56173486     0.75900
H407        H  0.32314979  0.19540705  0.63866292     0.09800
C408        C  0.33274767  0.16582300  0.72104883     0.03500
C409        C  0.31901194  0.14962880  0.76198122    -0.05200
C410        C  0.30087884  0.12566759  0.75074167    -0.23600
C411        C  0.29711291  0.11811771  0.69659180     0.12800
C412        C  0.31102300  0.13430043  0.65580677    -0.12700
N413        N  0.35082789  0.18993000  0.73487639     0.64400
H414        H  0.32258072  0.15591598  0.80293933     0.12300
N415        N  0.27971093  0.09382773  0.68223384     0.61100
H416        H  0.30754666  0.12818337  0.61471935     0.08400
O417        O  0.35062798  0.24796014  0.58344365    -0.40400
O418        O  0.31832097  0.22123322  0.54128518    -0.39600
O419        O  0.35264455  0.13590320  0.57031767    -0.39600
O420        O  0.38348784  0.16077288  0.61900303    -0.37300
O421        O  0.25927020  0.08905105  0.66506465    -0.38200
O422        O  0.28605311  0.07814306  0.67846666    -0.34300
O423        O  0.34471358  0.20515675  0.74778023    -0.35700
O424        O  0.37226120  0.19480550  0.74261100    -0.40000
C425        C  0.33514823  0.14816284  0.09500016    -0.13700
C426        C  0.31823397  0.14256128  0.13618764     0.16700
C427        C  0.29374412  0.12621731  0.12584318     0.03000
C428        C  0.28634286  0.11674405  0.07484643    -0.12200
C429        C  0.30292430  0.12258831  0.03285687    -0.03300
C430        C  0.32768432  0.13814854  0.04354373     0.02200
C431        C  0.32522042  0.15688267  0.18636295     0.09000
N432        N  0.27607894  0.11907298  0.16706697     0.65400
H433        H  0.26730057  0.10409621  0.06869428     0.18300
N434        N  0.34518271  0.14507275  0.00213479     0.75900
H435        H  0.35399901  0.16121364  0.10208892     0.09800
C436        C  0.34245139  0.15749828  0.22232281     0.03500
C437        C  0.34957296  0.17301611  0.26684019    -0.05200
C438        C  0.33969525  0.18793244  0.27591130    -0.23600
C439        C  0.32199701  0.18673223  0.24063310     0.12800
C440        C  0.31484761  0.17122245  0.19672366    -0.12700
N441        N  0.35337452  0.14311157  0.21320353     0.64400
H442        H  0.36398117  0.17460134  0.29230892     0.12300
N443        N  0.31308021  0.20312502  0.24562632     0.61100
H444        H  0.30197843  0.17134778  0.16881722     0.08400
O445        O  0.36027070  0.13792672  0.00326817    -0.40400
O446        O  0.34779720  0.16104927  0.96904604    -0.39600
O447        O  0.25975984  0.12453442  0.16374895    -0.39600
O448        O  0.27459406  0.10426609  0.20212813    -0.37300
O449        O  0.32252139  0.22230549  0.21845221    -0.38200
O450        O  0.29311709  0.19623631  0.26825851    -0.34300
O451        O  0.37478407  0.15295046  0.19639396    -0.35700
O452        O  0.34321857  0.12166539  0.23019991    -0.40000
C453        C  0.44662686  0.20179575  0.26486167    -0.13700
C454        C  0.45370124  0.19211448  0.30633956     0.16700
C455        C  0.45435623  0.20036306  0.35895234     0.03000
C456        C  0.44584835  0.21636360  0.36953356    -0.12200
C457        C  0.43741476  0.22509094  0.32828523    -0.03300
C458        C  0.43887188  0.21833121  0.27507434     0.02200
C459        C  0.45739555  0.17140537  0.29434874     0.09000
N460        N  0.46389286  0.19288082  0.40176535     0.65400
H461        H  0.44557063  0.22172684  0.41041148     0.18300
N462        N  0.43247685  0.22796645  0.23070568     0.75900
H463        H  0.44641224  0.19589449  0.22420535     0.09800
C464        C  0.44162210  0.14824632  0.31520372     0.03500
C465        C  0.44455092  0.12868743  0.30139114    -0.05200
C466        C  0.46276272  0.13135400  0.26615899    -0.23600
C467        C  0.47870506  0.15463022  0.24547071     0.12800
C468        C  0.47573874  0.17431802  0.25928440    -0.12700
N469        N  0.42172141  0.14399385  0.34835403     0.64400
H470        H  0.43196456  0.11105148  0.31754895     0.12300
N471        N  0.49853580  0.15882997  0.21229668     0.61100
H472        H  0.48798542  0.19204215  0.24304827     0.08400
O473        O  0.41331289  0.21461077  0.20506464    -0.40400
O474        O  0.44793972  0.24809226  0.21147127    -0.39600
O475        O  0.48542823  0.19738707  0.39968675    -0.39600
O476        O  0.45235878  0.18546190  0.44488142    -0.37300
O477        O  0.49817965  0.16315174  0.16334990    -0.38200
O478        O  0.51781851  0.16200015  0.23329227    -0.34300
O479        O  0.40502495  0.14680804  0.32961198    -0.35700
O480        O  0.41887517  0.13377686  0.39291633    -0.40000
C481        C  0.36249593  0.01966000  0.08495452    -0.13700
C482        C  0.36087714  0.04016533  0.07270326     0.16700
C483        C  0.38070922  0.06327776  0.08324412     0.03000
C484        C  0.40174595  0.06564148  0.10556071    -0.12200
C485        C  0.40352824  0.04524460  0.11899055    -0.03300
C486        C  0.38344447  0.02195544  0.10860329     0.02200
C487        C  0.33858876  0.03769159  0.04891663     0.09000
N488        N  0.37972188  0.08461055  0.07138009     0.65400
H489        H  0.41664633  0.08373050  0.11322205     0.18300
N490        N  0.38358652  0.00048164  0.12347528     0.75900
H491        H  0.34720929  0.00178994  0.07730487     0.09800
C492        C  0.33259391  0.03089344  0.99527178     0.03500
C493        C  0.31464550  0.03383009  0.97057893    -0.05200
C494        C  0.30231968  0.04342747  0.99863738    -0.23600
C495        C  0.30662011  0.04769772  0.05401436     0.12800
C496        C  0.32482760  0.04503250  0.07840146    -0.12700
N497        N  0.34591121  0.02286047  0.96428313     0.64400
H498        H  0.31139109  0.02991080  0.92831095     0.12300
N499        N  0.29387638  0.05626174  0.08540547     0.61100
H500        H  0.32901901  0.04980494  0.12012169     0.08400
O501        O  0.38698613  0.98834538  0.08844138    -0.40400
O502        O  0.37620811  0.99150846  0.16908206    -0.39600
O503        O  0.37423510  0.09468888  0.10758927    -0.39600
O504        O  0.38820052  0.09551421  0.02795311    -0.37300
O505        O  0.27415279  0.04121778  0.10677409    -0.38200
O506        O  0.30439537  0.07809336  0.10015616    -0.34300
O507        O  0.33775740  0.00050241  0.95781337    -0.35700
O508        O  0.36362590  0.03787102  0.93687933    -0.40000
C509        C  0.49361625  0.01822569  0.00889427    -0.13700
C510        C  0.48011431  0.99279897  0.00999393     0.16700
C511        C  0.46660837  0.98139257  0.05617773     0.03000
C512        C  0.46634377  0.99538892  0.09909397    -0.12200
C513        C  0.47903271  0.02083987  0.09702758    -0.03300
C514        C  0.49308647  0.03220947  0.05152449     0.02200
C515        C  0.48158896  0.97869369  0.96392019     0.09000
N516        N  0.45209738  0.95563062  0.05910346     0.65400
H517        H  0.45515107  0.98618477  0.13328734     0.18300
N518        N  0.50770708  0.05792833  0.04887169     0.75900
H519        H  0.50499234  0.02735785  0.97490689     0.09800
C520        C  0.47813752  0.98378910  0.91091391     0.03500
C521        C  0.48304840  0.97278612  0.86808507    -0.05200
C522        C  0.49082891  0.95607568  0.87662027    -0.23600
C523        C  0.49300515  0.94997770  0.92979177     0.12800
C524        C  0.48862982  0.96142986  0.97256827    -0.12700
N525        N  0.46947155  0.00001537  0.89996663     0.64400
H526        H  0.48086037  0.97747743  0.82775946     0.12300
N527        N  0.50122953  0.93344094  0.94125761     0.61100
H528        H  0.49181496  0.95754345  0.01283418     0.08400
O529        O  0.50191563  0.06965018  0.01773740    -0.40400
O530        O  0.52837879  0.06827797  0.07006179    -0.39600
O531        O  0.45704523  0.94419334  0.09296801    -0.39600
O532        O  0.43232852  0.94485155  0.03409700    -0.37300
O533        O  0.52353617  0.94111935  0.94549203    -0.38200
O534        O  0.48628017  0.91204108  0.95489014    -0.34300
O535        O  0.48270878  0.01954109  0.87556540    -0.35700
O536        O  0.44755302  0.99328117  0.90781891    -0.40000
C537        C  0.47739809  0.99030301  0.42659014    -0.13700
C538        C  0.48772071  0.00631549  0.47006731     0.16700
C539        C  0.49516276  0.03092302  0.46285127     0.03000
C540        C  0.49205887  0.03894123  0.41343380    -0.12200
C541        C  0.48079164  0.02285381  0.37054802    -0.03300
C542        C  0.47361847  0.99830586  0.37730049     0.02200
C543        C  0.49186628  0.99742409  0.52160154     0.09000
N544        N  0.50465600  0.04781399  0.50611512     0.65400
H545        H  0.49733546  0.05785784  0.40979560     0.18300
N546        N  0.46317006  0.98149729  0.33426555     0.75900
H547        H  0.47245184  0.97150796  0.43072114     0.09800
C548        C  0.47346732  0.97640547  0.54621607     0.03500
C549        C  0.47878013  0.96695129  0.59108921    -0.05200
C550        C  0.50204984  0.97846750  0.61348109    -0.23600
C551        C  0.52003257  0.00045114  0.59118353     0.12800
C552        C  0.51495912  0.00938144  0.54498289    -0.12700
N553        N  0.44931237  0.96441108  0.52600677     0.64400
H554        H  0.46467929  0.95015051  0.60796074     0.12300
N555        N  0.54398899  0.01297441  0.61241227     0.61100
H556        H  0.52943935  0.02536691  0.52632153     0.08400
O557        O  0.44096648  0.96594590  0.33489793    -0.40400
O558        O  0.47666860  0.97988147  0.29998361    -0.39600
O559        O  0.52545071  0.06622919  0.50259788    -0.39600
O560        O  0.49088250  0.04648987  0.54344603    -0.37300
O561        O  0.56090408  0.01297793  0.58684816    -0.38200
O562        O  0.54895793  0.02784965  0.65010653    -0.34300
O563        O  0.43976842  0.94287294  0.50951218    -0.35700
O564        O  0.43648184  0.97408040  0.53155857    -0.40000
C565        C  0.17447616  0.95960889  0.96286105    -0.13700
C566        C  0.15145436  0.95697273  0.96616086     0.16700
C567        C  0.14812454  0.97590520  0.94718185     0.03000
C568        C  0.16786273  0.99712292  0.92639265    -0.12200
C569        C  0.19112609  0.00011110  0.92536398    -0.03300
C570        C  0.19414680  0.98080538  0.94282211     0.02200
C571        C  0.13141610  0.93400658  0.98870715     0.09000
N572        N  0.12532163  0.97463850  0.95240305     0.65400
H573        H  0.16529558  0.01194052  0.91434647     0.18300
N574        N  0.21715232  0.98238712  0.93993048     0.75900
H575        H  0.17722167  0.94504551  0.97612383     0.09800
C576        C  0.11232454  0.91701432  0.95654337     0.03500
C577        C  0.09588174  0.89410604  0.97697581    -0.05200
C578        C  0.09807918  0.88726621  0.02918527    -0.23600
C579        C  0.11623455  0.90497334  0.06253065     0.12800
C580        C  0.13273352  0.92794144  0.04197557    -0.12700
N581        N  0.11052478  0.92191872  0.90166783     0.64400
H582        H  0.08206164  0.88111772  0.95042098     0.12300
N583        N  0.11874450  0.89978734  0.11675204     0.61100
H584        H  0.14715836  0.94092934  0.06739649     0.08400
O585        O  0.22324822  0.97625377  0.89753739    -0.40400
O586        O  0.22930330  0.98570751  0.98193023    -0.39600
O587        O  0.11813112  0.97651008  0.99800560    -0.39600
O588        O  0.11480772  0.97638944  0.91153339    -0.37300
O589        O  0.13398860  0.89361470  0.12883639    -0.38200
O590        O  0.10885905  0.90535092  0.15318596    -0.34300
O591        O  0.12502173  0.92147291  0.86837241    -0.35700
O592        O  0.09184276  0.92174611  0.88514899    -0.40000
C593        C  0.40858944  0.87111486  0.61647566    -0.13700
C594        C  0.39203593  0.87005478  0.65416115     0.16700
C595        C  0.39882932  0.87408389  0.70842811     0.03000
C596        C  0.42244067  0.88064437  0.72342435    -0.12200
C597        C  0.43947782  0.88265588  0.68549741    -0.03300
C598        C  0.43203045  0.87716538  0.63147911     0.02200
C599        C  0.36839451  0.86635559  0.63559660     0.09000
N600        N  0.38179456  0.87105865  0.74882157     0.65400
H601        H  0.42744887  0.88426549  0.76513035     0.18300
N602        N  0.44812310  0.87822130  0.59088038     0.75900
H603        H  0.40348329  0.86787357  0.57474741     0.09800
C604        C  0.36230972  0.88450974  0.64260368     0.03500
C605        C  0.33941024  0.88005547  0.62750575    -0.05200
C606        C  0.32248479  0.85807083  0.60354598    -0.23600
C607        C  0.32902992  0.84037039  0.59412448     0.12800
C608        C  0.35182051  0.84459439  0.61039411    -0.12700
N609        N  0.37951251  0.90787400  0.66309647     0.64400
H610        H  0.33492369  0.89409742  0.63393355     0.12300
N611        N  0.31232972  0.81754966  0.57091798     0.61100
H612        H  0.35641750  0.83061554  0.60437499     0.08400
O613        O  0.45867157  0.89670364  0.56165314    -0.40400
O614        O  0.44827794  0.85923098  0.57797125    -0.39600
O615        O  0.36345932  0.85047651  0.75612053    -0.39600
O616        O  0.38705414  0.88759621  0.78271865    -0.37300
O617        O  0.31417342  0.81371592  0.52228030    -0.38200
O618        O  0.29864175  0.80009737  0.60063389    -0.34300
O619        O  0.39856595  0.92112583  0.63726903    -0.35700
O620        O  0.37389814  0.91681135  0.70153112    -0.40000
C621        C  0.37742208  0.99406231  0.42431891    -0.13700
C622        C  0.35594144  0.98019754  0.39533518     0.16700
C623        C  0.35447475  0.98710653  0.34281683     0.03000
C624        C  0.37484131  0.00614454  0.31881098    -0.12200
C625        C  0.39707357  0.01861763  0.34593092    -0.03300
C626        C  0.39787362  0.01327608  0.40030496     0.02200
C627        C  0.33587250  0.95763509  0.41869295     0.09000
N628        N  0.33307767  0.97359490  0.31164024     0.65400
H629        H  0.37358773  0.01010578  0.27730935     0.18300
N630        N  0.41956249  0.02621489  0.43084378     0.75900
H631        H  0.37855617  0.98942669  0.46534543     0.09800
C632        C  0.33959448  0.93867934  0.43492812     0.03500
C633        C  0.32032944  0.91718311  0.45472017    -0.05200
C634        C  0.29693774  0.91381436  0.45863392    -0.23600
C635        C  0.29323266  0.93289459  0.44240051     0.12800
C636        C  0.31266385  0.95456770  0.42308420    -0.12700
N637        N  0.36277377  0.94074090  0.43024544     0.64400
H638        H  0.32385823  0.90305808  0.46730394     0.12300
N639        N  0.26989504  0.93057781  0.44489300     0.61100
H640        H  0.30956374  0.96903705  0.41104312     0.08400
O641        O  0.43151921  0.01616170  0.44305702    -0.40400
O642        O  0.42456376  0.04599393  0.45266160    -0.39600
O643        O  0.31950077  0.98219884  0.30288706    -0.39600
O644        O  0.33013707  0.95548975  0.28527496    -0.37300
O645        O  0.25397759  0.91786014  0.41082995    -0.38200
O646        O  0.26544488  0.94195909  0.47992339    -0.34300
O647        O  0.37493844  0.94292588  0.47162461    -0.35700
O648        O  0.36942000  0.93679144  0.38590430    -0.40000
C649        C  0.29443840  0.96534404  0.68755331    -0.13700
C650        C  0.27989795  0.96315735  0.73131360     0.16700
C651        C  0.26466518  0.94009569  0.75322079     0.03000
C652        C  0.26285523  0.91951300  0.72898049    -0.12200
C653        C  0.27589607  0.92148189  0.68258759    -0.03300
C654        C  0.29255561  0.94472920  0.66306822     0.02200
C655        C  0.27804918  0.98435574  0.74851511     0.09000
N656        N  0.24997956  0.93726448  0.79846955     0.65400
H657        H  0.24989760  0.90181974  0.74435428     0.18300
N658        N  0.30709535  0.94760170  0.61745845     0.75900
H659        H  0.30629983  0.98300469  0.67051874     0.09800
C660        C  0.29757389  0.00493954  0.77185175     0.03500
C661        C  0.29494600  0.02463777  0.78676518    -0.05200
C662        C  0.27300328  0.02424296  0.77877220    -0.23600
C663        C  0.25381370  0.00391920  0.75326106     0.12800
C664        C  0.25645555  0.98423613  0.73876626    -0.12700
N665        N  0.31975817  0.00560526  0.78291236     0.64400
H666        H  0.30985812  0.03986616  0.80679917     0.12300
N667        N  0.23174001  0.00320736  0.74051912     0.61100
H668        H  0.24158909  0.96879636  0.71912841     0.08400
O669        O  0.30165306  0.95265962  0.57285680    -0.40400
O670        O  0.32745522  0.94938200  0.62367276    -0.39600
O671        O  0.22743269  0.92766229  0.79301823    -0.39600
O672        O  0.25910702  0.94147999  0.84459164    -0.37300
O673        O  0.23047101  0.01367326  0.69907700    -0.38200
O674        O  0.21271498  0.98910408  0.76551785    -0.34300
O675        O  0.33832895  0.01923210  0.75605287    -0.35700
O676        O  0.32168872  0.99556020  0.82438019    -0.40000
C677        C  0.12484547  0.82599596  0.31007728    -0.13700
C678        C  0.14903465  0.83258203  0.30145568     0.16700
C679        C  0.15771387  0.83651647  0.24869427     0.03000
C680        C  0.14228992  0.83355556  0.20585125    -0.12200
C681        C  0.11794602  0.82661967  0.21412286    -0.03300
C682        C  0.10927183  0.82275821  0.26721662     0.02200
C683        C  0.16476077  0.83447413  0.34757517     0.09000
N684        N  0.18234145  0.84390426  0.23807832     0.65400
H685        H  0.14942502  0.83655558  0.16569522     0.18300
N686        N  0.08429979  0.81367410  0.27814734     0.75900
H687        H  0.11774194  0.82244095  0.35029780     0.09800
C688        C  0.16985328  0.85122933  0.38917892     0.03500
C689        C  0.18453365  0.85252871  0.43214035    -0.05200
C690        C  0.19471990  0.83754345  0.43467015    -0.23600
C691        C  0.18904523  0.82024920  0.39389468     0.12800
C692        C  0.17427168  0.81891078  0.35082672    -0.12700
N693        N  0.16132273  0.86798130  0.38687657     0.64400
H694        H  0.18886677  0.86616680  0.46261035     0.12300
N695        N  0.19710818  0.80314241  0.39709993     0.61100
H696        H  0.16986245  0.80535353  0.32014546     0.08400
O697        O  0.07765555  0.82747195  0.29817835    -0.40400
O698        O  0.06967167  0.79118821  0.27612360    -0.39600
O699        O  0.18778024  0.82869444  0.22106891    -0.39600
O700        O  0.19806059  0.86610146  0.23846565    -0.37300
O701        O  0.18687534  0.78553325  0.42881036    -0.38200
O702        O  0.21168143  0.80347783  0.36293117    -0.34300
O703        O  0.14578026  0.86638202  0.41992378    -0.35700
O704        O  0.17198220  0.88644641  0.35763694    -0.40000
C705        C  0.16257105  0.83904853  0.75538492    -0.13700
C706        C  0.17040511  0.83333129  0.80281791     0.16700
C707        C  0.19059426  0.83023620  0.80142049     0.03000
C708        C  0.20274245  0.83318939  0.75356665    -0.12200
C709        C  0.19535845  0.83941373  0.70632122    -0.03300
C710        C  0.17487971  0.84204738  0.70713351     0.02200
C711        C  0.15700489  0.82990039  0.85318504     0.09000
N712        N  0.19960831  0.82510003  0.84879587     0.65400
H713        H  0.21871583  0.83144749  0.75389687     0.18300
N714        N  0.16559027  0.84621162  0.65900269     0.75900
H715        H  0.14653537  0.84065865  0.75565889     0.09800
C716        C  0.15335977  0.84828735  0.87363650     0.03500
C717        C  0.13930061  0.84401825  0.91920142    -0.05200
C718        C  0.12889544  0.82166332  0.94578828    -0.23600
C719        C  0.13372865  0.80368890  0.92698466     0.12800
C720        C  0.14739881  0.80783594  0.88058916    -0.12700
N721        N  0.16396873  0.87145737  0.84863935     0.64400
H722        H  0.13608828  0.85819334  0.93321630     0.12300
N723        N  0.12401981  0.78077314  0.95288201     0.61100
H724        H  0.15006597  0.79351365  0.86519032     0.08400
O725        O  0.16484135  0.86541568  0.65343293    -0.40400
O726        O  0.15511192  0.82932364  0.62541193    -0.39600
O727        O  0.19852244  0.80494927  0.85373828    -0.39600
O728        O  0.21187969  0.84186907  0.88159187    -0.37300
O729        O  0.10574406  0.76250146  0.93358781    -0.38200
O730        O  0.13604816  0.77796888  0.98913324    -0.34300
O731        O  0.15070847  0.87822478  0.82638772    -0.35700
O732        O  0.18617190  0.88630958  0.85486937    -0.40000
C733        C  0.20571380  0.13697809  0.90452940    -0.13700
C734        C  0.20667702  0.14295431  0.95888295     0.16700
C735        C  0.21255859  0.13023726  0.99619980     0.03000
C736        C  0.21771792  0.11241236  0.97886527    -0.12200
C737        C  0.21744171  0.10685567  0.92435508    -0.03300
C738        C  0.21098305  0.11919077  0.88711589     0.02200
C739        C  0.20136565  0.16233670  0.97574890     0.09000
N740        N  0.21468614  0.13614175  0.05165979     0.65400
H741        H  0.22293575  0.10352785  0.00839456     0.18300
N742        N  0.20886180  0.11330399  0.83168630     0.75900
H743        H  0.20060061  0.14606357  0.87530950     0.09800
C744        C  0.21438883  0.18587543  0.95447625     0.03500
C745        C  0.20820090  0.20336287  0.96805234    -0.05200
C746        C  0.18924904  0.19829311  0.00364025    -0.23600
C747        C  0.17650717  0.17479316  0.02596078     0.12800
C748        C  0.18256706  0.15715200  0.01175760    -0.12700
N749        N  0.23458457  0.19257800  0.92030319     0.64400
H750        H  0.21866013  0.22124901  0.95087624     0.12300
N751        N  0.15696237  0.16826100  0.06197440     0.61100
H752        H  0.17217148  0.13911273  0.02821957     0.08400
O753        O  0.22450511  0.12781762  0.79940549    -0.40400
O754        O  0.18961383  0.09556066  0.81412008    -0.39600
O755        O  0.19937483  0.12132602  0.08407559    -0.39600
O756        O  0.23385750  0.15401521  0.06912471    -0.37300
O757        O  0.13567350  0.15863621  0.04422923    -0.38200
O758        O  0.16048460  0.16844277  0.11151925    -0.34300
O759        O  0.23345589  0.19730887  0.87193245    -0.35700
O760        O  0.25459207  0.19731342  0.94015092    -0.40000
C761        C  0.30130247  0.27458789  0.28247468    -0.13700
C762        C  0.30433766  0.28303544  0.23024369     0.16700
C763        C  0.32677744  0.29153544  0.20484962     0.03000
C764        C  0.34510203  0.28928819  0.23048605    -0.12200
C765        C  0.34100086  0.27838309  0.28086828    -0.03300
C766        C  0.31918378  0.27205165  0.30784525     0.02200
C767        C  0.28290387  0.28064191  0.20252469     0.09000
N768        N  0.33049130  0.30073809  0.15176735     0.65400
H769        H  0.36164624  0.29419760  0.20927447     0.18300
N770        N  0.31411561  0.26136800  0.35977253     0.75900
H771        H  0.28427557  0.26857183  0.30269126     0.09800
C772        C  0.26292399  0.25750641  0.19259654     0.03500
C773        C  0.24152455  0.25515598  0.17265324    -0.05200
C774        C  0.23933454  0.27556937  0.16249623    -0.23600
C775        C  0.25939620  0.29884341  0.17327581     0.12800
C776        C  0.28101287  0.30113532  0.19258550    -0.12700
N777        N  0.26414790  0.23616538  0.20282520     0.64400
H778        H  0.22658752  0.23711189  0.16470729     0.12300
N779        N  0.25808958  0.32030307  0.16594105     0.61100
H780        H  0.29610340  0.31895051  0.20169416     0.08400
O781        O  0.31748646  0.27450066  0.40012793    -0.40400
O782        O  0.30111307  0.23869917  0.36409249    -0.39600
O783        O  0.34376695  0.32313034  0.14369702    -0.39600
O784        O  0.32270870  0.28631447  0.11271737    -0.37300
O785        O  0.24828216  0.32653517  0.20124844    -0.38200
O786        O  0.27063108  0.33520545  0.13023330    -0.34300
O787        O  0.25329460  0.22312401  0.24252076    -0.35700
O788        O  0.27292805  0.22850478  0.16816279    -0.40000
C789        C  0.15939136  0.35839376  0.31956416    -0.13700
C790        C  0.14943775  0.33320143  0.32437272     0.16700
C791        C  0.13933724  0.32239384  0.37399232     0.03000
C792        C  0.13938425  0.33660605  0.41679133    -0.12200
C793        C  0.14861078  0.36165415  0.41154940    -0.03300
C794        C  0.15878104  0.37251604  0.36201310     0.02200
C795        C  0.15129374  0.31884216  0.27884513     0.09000
N796        N  0.12780682  0.29677213  0.38094304     0.65400
H797        H  0.13094557  0.32759872  0.45380683     0.18300
N798        N  0.16888722  0.39791852  0.35421347     0.75900
H799        H  0.16805074  0.36734213  0.28268592     0.09800
C800        C  0.14549486  0.32147796  0.22570180     0.03500
C801        C  0.14990578  0.30962632  0.18364052    -0.05200
C802        C  0.15938247  0.29435755  0.19305901    -0.23600
C803        C  0.16438568  0.29105747  0.24633433     0.12800
C804        C  0.16061225  0.30341705  0.28815358    -0.12700
N805        N  0.13467828  0.33576164  0.21378210     0.64400
H806        H  0.14572443  0.31229325  0.14318874     0.12300
N807        N  0.17491427  0.27655003  0.25849014     0.61100
H808        H  0.16594282  0.30160456  0.32812593     0.08400
O809        O  0.15737592  0.40556035  0.32761216    -0.40400
O810        O  0.19070803  0.41221078  0.36600816    -0.39600
O811        O  0.13554406  0.28815310  0.41585701    -0.39600
O812        O  0.10772959  0.28318672  0.35876323    -0.37300
O813        O  0.19752620  0.28578206  0.25663289    -0.38200
O814        O  0.16217377  0.25603675  0.27950641    -0.34300
O815        O  0.14550216  0.35400302  0.18394838    -0.35700
O816        O  0.11288061  0.32795444  0.22569321    -0.40000
C817        C  0.14349968  0.32553733  0.74062552    -0.13700
C818        C  0.15151176  0.34027147  0.78659334     0.16700
C819        C  0.15696628  0.36446636  0.78272246     0.03000
C820        C  0.15449908  0.37342344  0.73392428    -0.12200
C821        C  0.14591295  0.35864063  0.68822017    -0.03300
C822        C  0.14039311  0.33443049  0.69182993     0.02200
C823        C  0.15555936  0.33070588  0.83728765     0.09000
N824        N  0.16397134  0.37991363  0.82854935     0.65400
H825        H  0.15828600  0.39195942  0.73264990     0.18300
N826        N  0.13250823  0.31898671  0.64608754     0.75900
H827        H  0.14002563  0.30712864  0.74234116     0.09800
C828        C  0.13787374  0.30828886  0.85830538     0.03500
C829        C  0.14330786  0.29859912  0.90255263    -0.05200
C830        C  0.16605222  0.31099583  0.92748672    -0.23600
C831        C  0.18323368  0.33413037  0.90856037     0.12800
C832        C  0.17799669  0.34355998  0.86341280    -0.12700
N833        N  0.11432739  0.29508993  0.83505057     0.64400
H834        H  0.12970421  0.28094220  0.91690655     0.12300
N835        N  0.20663413  0.34757285  0.93230624     0.61100
H836        H  0.19197750  0.36064231  0.84744408     0.08400
O837        O  0.11101093  0.30172771  0.64326820    -0.40400
O838        O  0.14776333  0.32047830  0.61234031    -0.39600
O839        O  0.18407721  0.39932808  0.82923589    -0.39600
O840        O  0.14867480  0.37609443  0.86437576    -0.37300
O841        O  0.22370074  0.34501860  0.91515034    -0.38200
O842        O  0.21112271  0.36465728  0.96406574    -0.34300
O843        O  0.10694119  0.27422878  0.81607612    -0.35700
O844        O  0.09977374  0.30276804  0.84027968    -0.40000
C845        C  0.01557879  0.18505195  0.94274959    -0.13700
C846        C  0.03315276  0.20783025  0.96233175     0.16700
C847        C  0.02764601  0.22657922  0.96509620     0.03000
C848        C  0.00448273  0.22182341  0.95128267    -0.12200
C849        C  0.98675455  0.19896888  0.93254543    -0.03300
C850        C  0.99254910  0.18052023  0.92771454     0.02200
C851        C  0.05702288  0.21160778  0.97983536     0.09000
N852        N  0.04560377  0.25074036  0.97967300     0.65400
H853        H  0.00043530  0.23632759  0.95416460     0.18300
N854        N  0.97486368  0.15674879  0.91075286     0.75900
H855        H  0.01959654  0.17052415  0.94031672     0.09800
C856        C  0.06574956  0.21883649  0.03233645     0.03500
C857        C  0.08888000  0.22332417  0.04612578    -0.05200
C858        C  0.10364151  0.22039412  0.00892439    -0.23600
C859        C  0.09450557  0.21261345  0.95671159     0.12800
C860        C  0.07149094  0.20835794  0.94283198    -0.12700
N861        N  0.05116507  0.22115693  0.07243659     0.64400
H862        H  0.09531977  0.22923884  0.08639760     0.12300
N863        N  0.10839781  0.20922148  0.91683935     0.61100
H864        H  0.06499440  0.20280323  0.90243190     0.08400
O865        O  0.96094701  0.14155556  0.94455912    -0.40400
O866        O  0.97563019  0.14986618  0.86400998    -0.39600
O867        O  0.06484608  0.26168769  0.95306788    -0.39600
O868        O  0.04058459  0.26246941  0.01266313    -0.37300
O869        O  0.10711124  0.18895585  0.91246856    -0.38200
O870        O  0.11834722  0.22476672  0.88051654    -0.34300
O871        O  0.03155983  0.20284102  0.08619472    -0.35700
O872        O  0.05957227  0.24030714  0.09979316    -0.40000
C873        C  0.00440836  0.27691130  0.74648627    -0.13700
C874        C  0.00079885  0.29623667  0.73442060     0.16700
C875        C  0.97770111  0.29331391  0.74179944     0.03000
C876        C  0.95906569  0.27171641  0.76336143    -0.12200
C877        C  0.96284289  0.25254624  0.77720794    -0.03300
C878        C  0.98583805  0.25524006  0.76731415     0.02200
C879        C  0.02118328  0.31853475  0.71119073     0.09000
N880        N  0.97307553  0.31235972  0.72903941     0.65400
H881        H  0.94168380  0.27020490  0.77026574     0.18300
N882        N  0.99080704  0.23623589  0.77808415     0.75900
H883        H  0.02182238  0.27855147  0.73905339     0.09800
C884        C  0.04379085  0.33087357  0.73720402     0.03500
C885        C  0.06406737  0.34853002  0.70996664    -0.05200
C886        C  0.06235118  0.35424949  0.65677585    -0.23600
C887        C  0.03934964  0.34318803  0.63207547     0.12800
C888        C  0.01909084  0.32541493  0.65929631    -0.12700
N889        N  0.04659245  0.32494664  0.79067012     0.64400
H890        H  0.08148535  0.35683235  0.72973359     0.12300
N891        N  0.03636913  0.34920585  0.57879395     0.61100
H892        H  0.00190474  0.31602729  0.63863824     0.08400
O893        O  0.00314065  0.23755707  0.81854096    -0.40400
O894        O  0.98656631  0.22052437  0.74272106    -0.39600
O895        O  0.96077258  0.31058040  0.68818267    -0.39600
O896        O  0.97751677  0.32862818  0.76308139    -0.37300
O897        O  0.03439250  0.33536237  0.54080731    -0.38200
O898        O  0.03120269  0.36556709  0.57114349    -0.34300
O899        O  0.06022273  0.31647272  0.80024065    -0.35700
O900        O  0.03829289  0.33139062  0.82884067    -0.40000
C901        C  0.58470822  0.12254310  0.23810160    -0.13700
C902        C  0.58907260  0.11800738  0.29056744     0.16700
C903        C  0.57008325  0.10867372  0.32767994     0.03000
C904        C  0.54721692  0.10390123  0.31203533    -0.12200
C905        C  0.54254482  0.10770451  0.25930634    -0.03300
C906        C  0.56161071  0.11745003  0.22217747     0.02200
C907        C  0.61354321  0.12345617  0.30671648     0.09000
N908        N  0.57341868  0.10262288  0.38063355     0.65400
H909        H  0.53270357  0.09599558  0.34089507     0.18300
N910        N  0.55807900  0.12328789  0.16918534     0.75900
H911        H  0.59937761  0.13037255  0.20963326     0.09800
C912        C  0.62502097  0.11244843  0.28098452     0.03500
C913        C  0.64782638  0.11744559  0.29805162    -0.05200
C914        C  0.65975074  0.13341108  0.34078034    -0.23600
C915        C  0.64829406  0.14472234  0.36605426     0.12800
C916        C  0.62540443  0.13963951  0.34887583    -0.12700
N917        N  0.61338951  0.09552101  0.23854653     0.64400
H918        H  0.65611183  0.10851197  0.27772805     0.12300
N919        N  0.65960241  0.16151514  0.40883948     0.61100
H920        H  0.61685813  0.14849839  0.36844449     0.08400
O921        O  0.56147745  0.11300794  0.12995857    -0.40400
O922        O  0.55597817  0.14162939  0.16145854    -0.39600
O923        O  0.57175813  0.11409504  0.41979517    -0.39600
O924        O  0.57419843  0.08355996  0.38862481    -0.37300
O925        O  0.67294403  0.18372527  0.39879517    -0.38200
O926        O  0.65311633  0.15482971  0.45620794    -0.34300
O927        O  0.62119255  0.10118499  0.19155128    -0.35700
O928        O  0.59785579  0.07388899  0.24910095    -0.40000
C929        C  0.62731390  0.01983886  0.63669623    -0.13700
C930        C  0.62683355  0.02106113  0.58110713     0.16700
C931        C  0.60709466  0.00270895  0.55269819     0.03000
C932        C  0.58767288  0.98417265  0.58054650    -0.12200
C933        C  0.58746319  0.98349853  0.63659528    -0.03300
C934        C  0.60801133  0.00133303  0.66463356     0.02200
C935        C  0.64642775  0.04255240  0.55425204     0.09000
N936        N  0.60648189  0.00271555  0.49567391     0.65400
H937        H  0.57233528  0.97065715  0.55803257     0.18300
N938        N  0.60924147  0.00170293  0.72153982     0.75900
H939        H  0.64249365  0.03386102  0.65876112     0.09800
C940        C  0.64202615  0.05968723  0.52942727     0.03500
C941        C  0.66110986  0.08025457  0.50615812    -0.05200
C942        C  0.68489315  0.08449700  0.50751675    -0.23600
C943        C  0.68918402  0.06718477  0.53249892     0.12800
C944        C  0.67000592  0.04655278  0.55581212    -0.12700
N945        N  0.61850007  0.05704724  0.52964384     0.64400
H946        H  0.65717968  0.09312921  0.48733041     0.12300
N947        N  0.71277679  0.07014614  0.53471945     0.61100
H948        H  0.67352084  0.03349116  0.57516633     0.08400
O949        O  0.61686908  0.98944489  0.74516231    -0.40400
O950        O  0.60697635  0.01743260  0.74715249    -0.39600
O951        O  0.62193789  0.00026004  0.46965362    -0.39600
O952        O  0.58847908  0.00126387  0.47168856    -0.37300
O953        O  0.72459480  0.07684349  0.57774735    -0.38200
O954        O  0.71942163  0.06119128  0.49825549    -0.34300
O955        O  0.60996663  0.05971323  0.57273170    -0.35700
O956        O  0.60848805  0.05680896  0.48610294    -0.40000
C957        C  0.79122003  0.16719623  0.63457487    -0.13700
C958        C  0.81598979  0.17681066  0.62583532     0.16700
C959        C  0.82477901  0.18214303  0.57319462     0.03000
C960        C  0.80870284  0.17660956  0.53026775    -0.12200
C961        C  0.78376372  0.16627656  0.53870760    -0.03300
C962        C  0.77511849  0.16190684  0.59181469     0.02200
C963        C  0.83197452  0.17891814  0.67133001     0.09000
N964        N  0.85008522  0.19358701  0.56294244     0.65400
H965        H  0.81579033  0.18045881  0.49003754     0.18300
N966        N  0.74985985  0.15025146  0.60291537     0.75900
H967        H  0.78414784  0.16264644  0.67475115     0.09800
C968        C  0.83539646  0.19393213  0.71552220     0.03500
C969        C  0.84977758  0.19468088  0.75858822    -0.05200
C970        C  0.86113132  0.18069663  0.75880237    -0.23600
C971        C  0.85718246  0.16522817  0.71500501     0.12800
C972        C  0.84279332  0.16451419  0.67187765    -0.12700
N973        N  0.82516397  0.20926419  0.71623023     0.64400
H974        H  0.85271359  0.20696051  0.79132368     0.12300
N975        N  0.86639835  0.14905203  0.71513407     0.61100
H976        H  0.83966695  0.15226363  0.63895385     0.08400
O977        O  0.74138757  0.16176376  0.62653740    -0.40400
O978        O  0.73698840  0.12760862  0.59777171    -0.39600
O979        O  0.85843523  0.18254733  0.53694792    -0.39600
O980        O  0.86356572  0.21571169  0.57391458    -0.37300
O981        O  0.85311467  0.12767227  0.73130357    -0.38200
O982        O  0.88526409  0.15434944  0.68924309    -0.34300
O983        O  0.80754449  0.20430414  0.74636379    -0.35700
O984        O  0.83591638  0.22948182  0.69306071    -0.40000
C985        C  0.83138180  0.18651737  0.08731594    -0.13700
C986        C  0.83903632  0.17896328  0.13241724     0.16700
C987        C  0.85927760  0.17612371  0.12819877     0.03000
C988        C  0.87085171  0.17977336  0.07937668    -0.12200
C989        C  0.86319732  0.18695680  0.03387738    -0.03300
C990        C  0.84348755  0.19077176  0.03820457     0.02200
C991        C  0.82524034  0.17288848  0.18304996     0.09000
N992        N  0.86879654  0.17030845  0.17376183     0.65400
H993        H  0.88653477  0.17756997  0.07751495     0.18300
N994        N  0.83478274  0.19755566  0.99280962     0.75900
H995        H  0.81560319  0.18851046  0.08991767     0.09800
C996        C  0.82094491  0.18981986  0.20900975     0.03500
C997        C  0.80607723  0.18291128  0.25388322    -0.05200
C998        C  0.79541912  0.15924360  0.27424577    -0.23600
C999        C  0.80090888  0.14266456  0.25015395     0.12800
C1000       C  0.81564986  0.14957648  0.20477429    -0.12700
N1001       N  0.83105593  0.21392345  0.18931227     0.64400
H1002       H  0.80218617  0.19599384  0.27196477     0.12300
N1003       N  0.79009578  0.11824721  0.26833164     0.61100
H1004       H  0.81876183  0.13630892  0.18498584     0.08400
O1005       O  0.83813869  0.21871042  0.98958075    -0.40400
O1006       O  0.82064641  0.18152969  0.96041871    -0.39600
O1007       O  0.86944025  0.15092190  0.17457117    -0.39600
O1008       O  0.87947487  0.18596471  0.20977021    -0.37300
O1009       O  0.76955214  0.10262326  0.25116057    -0.38200
O1010       O  0.80263033  0.11152046  0.29393352    -0.34300
O1011       O  0.81738160  0.22106670  0.17107248    -0.35700
O1012       O  0.85363096  0.22792966  0.18910821    -0.40000
C1013       C  0.00061651  0.70482805  0.19060157    -0.13700
C1014       C  0.97802245  0.70250144  0.19978677     0.16700
C1015       C  0.97541091  0.72305070  0.19525218     0.03000
C1016       C  0.99512896  0.74517364  0.17930191    -0.12200
C1017       C  0.01798643  0.74775008  0.17072731    -0.03300
C1018       C  0.02064414  0.72719680  0.17733203     0.02200
C1019       C  0.95821343  0.67927226  0.22031134     0.09000
N1020       N  0.95342694  0.72217602  0.21026823     0.65400
H1021       H  0.99266949  0.76065816  0.17529540     0.18300
N1022       N  0.04358860  0.72872523  0.17255492     0.75900
H1023       H  0.00290807  0.68927519  0.19567452     0.09800
C1024       C  0.93565493  0.66635084  0.19434401     0.03500
C1025       C  0.91622828  0.64709363  0.22057111    -0.05200
C1026       C  0.91892269  0.64049296  0.27240280    -0.23600
C1027       C  0.94208498  0.65211800  0.29614302     0.12800
C1028       C  0.96140124  0.67135247  0.27002707    -0.12700
N1029       N  0.93204611  0.67298031  0.14216581     0.64400
H1030       H  0.89861547  0.63834674  0.20161774     0.12300
N1031       N  0.94599636  0.64560290  0.34814295     0.61100
H1032       H  0.97874253  0.68101822  0.29004703     0.08400
O1033       O  0.04665807  0.71646085  0.13727729    -0.40400
O1034       O  0.05855417  0.73770070  0.21040107    -0.39600
O1035       O  0.94540032  0.71598959  0.25699260    -0.39600
O1036       O  0.94428910  0.73126923  0.18022254    -0.37300
O1037       O  0.94889693  0.62762872  0.35360038    -0.38200
O1038       O  0.95089362  0.66014596  0.38650337    -0.34300
O1039       O  0.94175090  0.66905578  0.10264778    -0.35700
O1040       O  0.91570755  0.67814896  0.13443891    -0.40000
C1041       C  0.91836299  0.77868659  0.90985581    -0.13700
C1042       C  0.92585125  0.78801989  0.96164337     0.16700
C1043       C  0.91081725  0.79360396  0.99209271     0.03000
C1044       C  0.88851843  0.78886283  0.97163177    -0.12200
C1045       C  0.88031919  0.77824094  0.92104774    -0.03300
C1046       C  0.89585092  0.77366343  0.88951936     0.02200
C1047       C  0.94951684  0.79229505  0.98278932     0.09000
N1048       N  0.91727110  0.80284349  0.04517148     0.65400
H1049       H  0.87709526  0.79266774  0.99682039     0.18300
N1050       N  0.88881884  0.76322973  0.83754590     0.75900
H1051       H  0.93001518  0.77507095  0.88502480     0.09800
C1052       C  0.95573694  0.77402432  0.98130408     0.03500
C1053       C  0.97867779  0.77909775  0.99812563    -0.05200
C1054       C  0.99571115  0.80203265  0.01784174    -0.23600
C1055       C  0.98931903  0.82012197  0.02089199     0.12800
C1056       C  0.96650548  0.81519846  0.00303217    -0.12700
N1057       N  0.93875037  0.75001711  0.96411930     0.64400
H1058       H  0.98314019  0.76485893  0.99615566     0.12300
N1059       N  0.00629943  0.84401332  0.03869669     0.61100
H1060       H  0.96237150  0.82966723  0.00334782     0.08400
O1061       O  0.87927122  0.74064989  0.83162664    -0.40400
O1062       O  0.89552632  0.77676023  0.79712250    -0.39600
O1063       O  0.92249696  0.82429008  0.05508908    -0.39600
O1064       O  0.91333120  0.78844550  0.08320536    -0.37300
O1065       O  0.02240786  0.85859233  0.00730252    -0.38200
O1066       O  0.00303018  0.85161484  0.08254171    -0.34300
O1067       O  0.94206641  0.74223705  0.92056464    -0.35700
O1068       O  0.92373576  0.73524874  0.99705135    -0.40000
C1069       C  0.84155384  0.67854209  0.55768610    -0.13700
C1070       C  0.82955712  0.66586989  0.60392131     0.16700
C1071       C  0.81988965  0.64053323  0.60514630     0.03000
C1072       C  0.82347615  0.62877381  0.56181662    -0.12200
C1073       C  0.83579510  0.64144896  0.51575799    -0.03300
C1074       C  0.84464802  0.66667393  0.51386111     0.02200
C1075       C  0.82730467  0.67941124  0.65017133     0.09000
N1076       N  0.80553293  0.62630616  0.64904596     0.65400
H1077       H  0.81614120  0.60939021  0.56394185     0.18300
N1078       N  0.85766268  0.68076483  0.46870918     0.75900
H1079       H  0.84899872  0.69795336  0.55592956     0.09800
C1080       C  0.83479229  0.67762963  0.70227200     0.03500
C1081       C  0.83008456  0.68877011  0.74524481    -0.05200
C1082       C  0.81930074  0.70293786  0.73731488    -0.23600
C1083       C  0.81320945  0.70592853  0.68479190     0.12800
C1084       C  0.81699861  0.69401614  0.64209718    -0.12700
N1085       N  0.84813879  0.66554840  0.71185883     0.64400
H1086       H  0.83546807  0.68685468  0.78508828     0.12300
N1087       N  0.80197758  0.71994294  0.67435413     0.61100
H1088       H  0.81131128  0.69574539  0.60243512     0.08400
O1089       O  0.88039587  0.69114682  0.46823837    -0.40400
O1090       O  0.84691613  0.68621101  0.43407458    -0.39600
O1091       O  0.78649604  0.62643454  0.66103212    -0.39600
O1092       O  0.80960050  0.61076125  0.66991573    -0.37300
O1093       O  0.81441507  0.74109471  0.65616775    -0.38200
O1094       O  0.77926109  0.70982308  0.67412017    -0.34300
O1095       O  0.86719435  0.67163139  0.68592139    -0.35700
O1096       O  0.84319251  0.65177387  0.75160452    -0.40000
C1097       C  0.83884470  0.67144778  0.18588026    -0.13700
C1098       C  0.83512757  0.65795151  0.13896688     0.16700
C1099       C  0.83573142  0.63632833  0.14118224     0.03000
C1100       C  0.83885427  0.62793750  0.19023541    -0.12200
C1101       C  0.84187125  0.64096811  0.23764416    -0.03300
C1102       C  0.84243641  0.66321595  0.23509394     0.02200
C1103       C  0.82946821  0.66606082  0.08856500     0.09000
N1104       N  0.83354072  0.62290342  0.09383642     0.65400
H1105       H  0.83912879  0.61112491  0.19121685     0.18300
N1106       N  0.84535126  0.67693959  0.28225168     0.75900
H1107       H  0.83844653  0.68817770  0.18438449     0.09800
C1108       C  0.80539388  0.65633995  0.07136288     0.03500
C1109       C  0.80032046  0.66555941  0.02563328    -0.05200
C1110       C  0.81887501  0.68494639  0.99755232    -0.23600
C1111       C  0.84308289  0.69355105  0.01286392     0.12800
C1112       C  0.84817926  0.68407138  0.05819380    -0.12700
N1113       N  0.78582840  0.63857974  0.10248433     0.64400
H1114       H  0.78162963  0.65902895  0.01505113     0.12300
N1115       N  0.86260210  0.71223162  0.98335213     0.61100
H1116       H  0.86677037  0.69119911  0.07050236     0.08400
O1117       O  0.82694841  0.67417356  0.30665216    -0.40400
O1118       O  0.86583857  0.69462104  0.29382280    -0.39600
O1119       O  0.85235008  0.62618987  0.07040615    -0.39600
O1120       O  0.81342287  0.60480691  0.08168957    -0.37300
O1121       O  0.86935384  0.70702884  0.94062950    -0.38200
O1122       O  0.87550236  0.73281318  0.00419833    -0.34300
O1123       O  0.78084265  0.64456125  0.14653202    -0.35700
O1124       O  0.77125440  0.61827620  0.08226825    -0.40000
C1125       C  0.20154103  0.74055969  0.66076962    -0.13700
C1126       C  0.18016050  0.72801906  0.63133797     0.16700
C1127       C  0.17730619  0.73850576  0.58455388     0.03000
C1128       C  0.19567149  0.76144257  0.56850874    -0.12200
C1129       C  0.21681278  0.77461207  0.59908005    -0.03300
C1130       C  0.21977399  0.76365041  0.64531656     0.02200
C1131       C  0.16094222  0.70409790  0.65038344     0.09000
N1132       N  0.15521852  0.72682143  0.55496587     0.65400
H1133       H  0.19270178  0.76950957  0.53347136     0.18300
N1134       N  0.24102406  0.77571512  0.67749532     0.75900
H1135       H  0.20394904  0.73248028  0.69650653     0.09800
C1136       C  0.15628584  0.68265792  0.62454157     0.03500
C1137       C  0.13726551  0.66042088  0.64179579    -0.05200
C1138       C  0.12269562  0.65893515  0.68518413    -0.23600
C1139       C  0.12780960  0.68044245  0.71203938     0.12800
C1140       C  0.14695049  0.70277067  0.69459966    -0.12700
N1141       N  0.17109806  0.68315622  0.58149850     0.64400
H1142       H  0.13389630  0.64412695  0.62104736     0.12300
N1143       N  0.11296310  0.68017900  0.75476036     0.61100
H1144       H  0.15042963  0.71926338  0.71456879     0.08400
O1145       O  0.25742982  0.77050894  0.67188962    -0.40400
O1146       O  0.24098650  0.78716494  0.71846661    -0.39600
O1147       O  0.13706002  0.72737793  0.57240097    -0.39600
O1148       O  0.15523168  0.72039336  0.50739172    -0.37300
O1149       O  0.09213020  0.67662621  0.74475050    -0.38200
O1150       O  0.12231149  0.68833136  0.79984747    -0.34300
O1151       O  0.19080223  0.68402104  0.59153794    -0.35700
O1152       O  0.16251809  0.67807353  0.53489177    -0.40000
C1153       C  0.05660211  0.66745882  0.90946171    -0.13700
C1154       C  0.03899500  0.67331823  0.89506604     0.16700
C1155       C  0.02179904  0.65943239  0.85608122     0.03000
C1156       C  0.02305053  0.64075093  0.83037578    -0.12200
C1157       C  0.04104341  0.63509155  0.84331949    -0.03300
C1158       C  0.05756820  0.64830413  0.88460747     0.02200
C1159       C  0.03952321  0.69471973  0.91901075     0.09000
N1160       N  0.00268921  0.66387143  0.84282584     0.65400
H1161       H  0.00972562  0.63067482  0.79980961     0.18300
N1162       N  0.07529924  0.64253850  0.90203224     0.75900
H1163       H  0.06990344  0.67805080  0.93969404     0.09800
C1164       C  0.03623238  0.69593614  0.97400143     0.03500
C1165       C  0.03865843  0.71706406  0.99602385    -0.05200
C1166       C  0.04520009  0.73770153  0.96473962    -0.23600
C1167       C  0.04721714  0.73599968  0.90894433     0.12800
C1168       C  0.04431925  0.71455065  0.88669381    -0.12700
N1169       N  0.03103182  0.67605426  0.00818533     0.64400
H1170       H  0.03631673  0.71754322  0.03888701     0.12300
N1171       N  0.05298505  0.75598629  0.87460592     0.61100
H1172       H  0.04670591  0.71367136  0.84400105     0.08400
O1173       O  0.07059267  0.62817094  0.94051087    -0.40400
O1174       O  0.09677050  0.65501045  0.88603516    -0.39600
O1175       O  0.00201040  0.67183707  0.79726133    -0.39600
O1176       O  0.98460672  0.65614526  0.87307744    -0.37300
O1177       O  0.07450248  0.76957081  0.85984114    -0.38200
O1178       O  0.03620970  0.75727249  0.85135326    -0.34300
O1179       O  0.04774862  0.67654305  0.03576089    -0.35700
O1180       O  0.00938078  0.66074217  0.01880987    -0.40000
C1181       C  0.11111691  0.53831993  0.60564555    -0.13700
C1182       C  0.10722608  0.51923239  0.63932997     0.16700
C1183       C  0.09761614  0.51796361  0.69076821     0.03000
C1184       C  0.09154720  0.53530799  0.70682455    -0.12200
C1185       C  0.09480904  0.55396173  0.67243158    -0.03300
C1186       C  0.10491738  0.55550534  0.62160148     0.02200
C1187       C  0.11264920  0.50052246  0.61930402     0.09000
N1188       N  0.09401686  0.49926368  0.72718979     0.65400
H1189       H  0.08355586  0.53375899  0.74572121     0.18300
N1190       N  0.10899442  0.57451641  0.58571932     0.75900
H1191       H  0.11856055  0.53959712  0.56621858     0.09800
C1192       C  0.09421955  0.47626865  0.61185257     0.03500
C1193       C  0.10005257  0.45887884  0.59560519    -0.05200
C1194       C  0.12394941  0.46521944  0.58445503    -0.23600
C1195       C  0.14228823  0.48964914  0.58940543     0.12800
C1196       C  0.13654059  0.50703811  0.60697300    -0.12700
N1197       N  0.06939066  0.46928990  0.61758280     0.64400
H1198       H  0.08571642  0.44023146  0.59105019     0.12300
N1199       N  0.16695116  0.49679138  0.58010618     0.61100
H1200       H  0.15086618  0.52563619  0.61209744     0.08400
O1201       O  0.12819299  0.59472222  0.58931412    -0.40400
O1202       O  0.09529504  0.57006102  0.54595499    -0.39600
O1203       O  0.11205530  0.49920601  0.74716680    -0.39600
O1204       O  0.07333448  0.48560665  0.74645083    -0.37300
O1205       O  0.17649070  0.50596357  0.53589512    -0.38200
O1206       O  0.18011582  0.49777070  0.61858397    -0.34300
O1207       O  0.05981211  0.47619551  0.58321285    -0.35700
O1208       O  0.05604784  0.45219090  0.64848177    -0.40000
C1209       C  0.99526880  0.62849712  0.54525506    -0.13700
C1210       C  0.97546573  0.62583728  0.57475156     0.16700
C1211       C  0.97538452  0.62333326  0.63041082     0.03000
C1212       C  0.99373105  0.62120543  0.65513737    -0.12200
C1213       C  0.01224699  0.62127445  0.62519120    -0.03300
C1214       C  0.01382191  0.62645471  0.57026548     0.02200
C1215       C  0.95352793  0.62238308  0.54712742     0.09000
N1216       N  0.95570680  0.62092735  0.66172741     0.65400
H1217       H  0.99235713  0.61736762  0.69751061     0.18300
N1218       N  0.03272627  0.62725069  0.53872533     0.75900
H1219       H  0.99556178  0.63066536  0.50236582     0.09800
C1220       C  0.95169788  0.64192930  0.52745860     0.03500
C1221       C  0.93005400  0.63777629  0.50386592    -0.05200
C1222       C  0.90998999  0.61417075  0.49892424    -0.23600
C1223       C  0.91225302  0.59457121  0.51811418     0.12800
C1224       C  0.93380274  0.59888823  0.54209571    -0.12700
N1225       N  0.97164925  0.66605950  0.53150044     0.64400
H1226       H  0.92905577  0.65314902  0.48909061     0.12300
N1227       N  0.89297276  0.57011421  0.51350262     0.61100
H1228       H  0.93517272  0.58372029  0.55698739     0.08400
O1229       O  0.02871475  0.60933201  0.51021474    -0.40400
O1230       O  0.05254711  0.64681231  0.53460298    -0.39600
O1231       O  0.93790929  0.60018066  0.67074410    -0.39600
O1232       O  0.95789622  0.63892555  0.68728803    -0.37300
O1233       O  0.89220306  0.55753456  0.47393775    -0.38200
O1234       O  0.87947561  0.55994653  0.55299254    -0.34300
O1235       O  0.98568031  0.67543475  0.49242446    -0.35700
O1236       O  0.97676927  0.67698445  0.57572104    -0.40000
C1237       C  0.77901407  0.24971325  0.27794740    -0.13700
C1238       C  0.79625869  0.26619273  0.31377571     0.16700
C1239       C  0.79532537  0.25938318  0.36755574     0.03000
C1240       C  0.77805310  0.23603705  0.38397554    -0.12200
C1241       C  0.76142767  0.21901026  0.34764649    -0.03300
C1242       C  0.76164067  0.22640193  0.29424150     0.02200
C1243       C  0.81524714  0.29031055  0.29443215     0.09000
N1244       N  0.81269452  0.27553472  0.40535604     0.65400
H1245       H  0.77837231  0.23096221  0.42504652     0.18300
N1246       N  0.74460040  0.21045100  0.25566624     0.75900
H1247       H  0.77912890  0.25494537  0.23680387     0.09800
C1248       C  0.83119420  0.29253319  0.25314576     0.03500
C1249       C  0.84983014  0.31541831  0.23782767    -0.05200
C1250       C  0.85284739  0.33624298  0.26304039    -0.23600
C1251       C  0.83634621  0.33424067  0.30249861     0.12800
C1252       C  0.81766124  0.31136897  0.31779056    -0.12700
N1253       N  0.82959585  0.27166072  0.22856686     0.64400
H1254       H  0.86266988  0.31685318  0.20790214     0.12300
N1255       N  0.83882012  0.35528982  0.32837018     0.61100
H1256       H  0.80521762  0.31002407  0.34859907     0.08400
O1257       O  0.75108041  0.20064789  0.22081560    -0.40400
O1258       O  0.72434465  0.20909252  0.25145688    -0.39600
O1259       O  0.80630234  0.28477461  0.44169336    -0.39600
O1260       O  0.83342250  0.27785981  0.40696602    -0.37300
O1261       O  0.82791820  0.36552648  0.30996258    -0.38200
O1262       O  0.84899259  0.36155159  0.37334587    -0.34300
O1263       O  0.82483542  0.26797848  0.17945329    -0.35700
O1264       O  0.83730523  0.25969936  0.25314790    -0.40000
C1265       C  0.96361827  0.35206183  0.07006548    -0.13700
C1266       C  0.94357564  0.32912190  0.06081240     0.16700
C1267       C  0.92035826  0.32480472  0.07342072     0.03000
C1268       C  0.91756013  0.34295717  0.09734117    -0.12200
C1269       C  0.93761493  0.36575847  0.10891977    -0.03300
C1270       C  0.96089374  0.37038976  0.09386047     0.02200
C1271       C  0.94687090  0.30918344  0.04109913     0.09000
N1272       N  0.89941098  0.30192218  0.06222946     0.65400
H1273       H  0.89951815  0.33889526  0.10786035     0.18300
N1274       N  0.98204731  0.39325509  0.10382455     0.75900
H1275       H  0.98154590  0.35552631  0.06032672     0.09800
C1276       C  0.95557242  0.30944875  0.98957177     0.03500
C1277       C  0.95425977  0.28845849  0.96916093    -0.05200
C1278       C  0.94415878  0.26696813  0.99925231    -0.23600
C1279       C  0.93827813  0.26778374  0.05316602     0.12800
C1280       C  0.93950323  0.28877786  0.07336837    -0.12700
N1281       N  0.96361118  0.33005631  0.95579347     0.64400
H1282       H  0.95941158  0.28848648  0.92799801     0.12300
N1283       N  0.92941938  0.24705607  0.08682882     0.61100
H1284       H  0.93363717  0.28880640  0.11387291     0.08400
O1285       O  0.99048918  0.40891252  0.06735133    -0.40400
O1286       O  0.99445063  0.39616532  0.14521164    -0.39600
O1287       O  0.88762715  0.28793555  0.09996751    -0.39600
O1288       O  0.89107394  0.29700358  0.01540043    -0.37300
O1289       O  0.94417076  0.24229138  0.10920188    -0.38200
O1290       O  0.90774092  0.23646024  0.10203617    -0.34300
O1291       O  0.98578637  0.34306370  0.94551837    -0.35700
O1292       O  0.94840400  0.33278299  0.92932199    -0.40000
C1293       C  0.86447723  0.46762938  0.26653637    -0.13700
C1294       C  0.86774576  0.47365981  0.32095647     0.16700
C1295       C  0.87600475  0.46193922  0.35505010     0.03000
C1296       C  0.88133023  0.44482407  0.33425444    -0.12200
C1297       C  0.87880447  0.43922833  0.27942209    -0.03300
C1298       C  0.86978181  0.45046172  0.24562955     0.02200
C1299       C  0.86393905  0.49337661  0.34036144     0.09000
N1300       N  0.88014316  0.46806703  0.41036338     0.65400
H1301       H  0.88845368  0.43660554  0.36095598     0.18300
N1302       N  0.86515234  0.44404513  0.19053754     0.75900
H1303       H  0.85788488  0.47643350  0.24010957     0.09800
C1304       C  0.88160966  0.51760342  0.33126836     0.03500
C1305       C  0.87665595  0.53606658  0.34232919    -0.05200
C1306       C  0.85428051  0.53097525  0.36334835    -0.23600
C1307       C  0.83709873  0.50675131  0.37595384     0.12800
C1308       C  0.84198568  0.48812631  0.36395344    -0.12700
N1309       N  0.90456176  0.52363941  0.30968027     0.64400
H1310       H  0.89034862  0.55456993  0.33352963     0.12300
N1311       N  0.81411725  0.50060537  0.39754686     0.61100
H1312       H  0.82830376  0.46947305  0.37131999     0.08400
O1313       O  0.87771679  0.45922750  0.15529056    -0.40400
O1314       O  0.84629070  0.42476632  0.17714781    -0.39600
O1315       O  0.86526729  0.45399168  0.44442685    -0.39600
O1316       O  0.90046253  0.48499255  0.42555287    -0.37300
O1317       O  0.79642505  0.49459927  0.36667181    -0.38200
O1318       O  0.81058423  0.49726819  0.44705026    -0.34300
O1319       O  0.90885419  0.52893569  0.26098216    -0.35700
O1320       O  0.92150874  0.52693283  0.34056291    -0.40000
C1321       C  0.98585780  0.37350426  0.41261319    -0.13700
C1322       C  0.00247603  0.37093373  0.38089556     0.16700
C1323       C  0.99844656  0.36788579  0.32539343     0.03000
C1324       C  0.97996950  0.37040453  0.30235690    -0.12200
C1325       C  0.96545812  0.37642106  0.33333224    -0.03300
C1326       C  0.96755847  0.37643399  0.38947520     0.02200
C1327       C  0.02513485  0.37406352  0.40507733     0.09000
N1328       N  0.01431082  0.36451794  0.29115510     0.65400
H1329       H  0.97830267  0.36951262  0.25924041     0.18300
N1330       N  0.95250781  0.38109161  0.42348648     0.75900
H1331       H  0.98792062  0.37460646  0.45562964     0.09800
C1332       C  0.04040737  0.39488727  0.43548764     0.03500
C1333       C  0.06277890  0.39884221  0.45313343    -0.05200
C1334       C  0.07051281  0.38232980  0.44183737    -0.23600
C1335       C  0.05486687  0.36097302  0.41335855     0.12800
C1336       C  0.03243343  0.35704968  0.39529648    -0.12700
N1337       N  0.03373719  0.41254885  0.44797621     0.64400
H1338       H  0.07413146  0.41500436  0.47634144     0.12300
N1339       N  0.06168184  0.34339824  0.40128023     0.61100
H1340       H  0.02073481  0.34068930  0.37308189     0.08400
O1341       O  0.96070100  0.40179822  0.44399896    -0.40400
O1342       O  0.93316156  0.36359917  0.44107153    -0.39600
O1343       O  0.00696761  0.34430072  0.26880847    -0.39600
O1344       O  0.03376320  0.38263067  0.27597046    -0.37300
O1345       O  0.05449535  0.32503615  0.43059889    -0.38200
O1346       O  0.07152573  0.34425688  0.35720026    -0.34300
O1347       O  0.02805376  0.41438403  0.49518573    -0.35700
O1348       O  0.03752167  0.42880206  0.41457774    -0.40000
C1349       C  0.99707497  0.50046258  0.06330368    -0.13700
C1350       C  0.98910117  0.49224506  0.01118506     0.16700
C1351       C  0.96784772  0.46976913  0.00397426     0.03000
C1352       C  0.95494772  0.45605632  0.04826076    -0.12200
C1353       C  0.96286444  0.46396423  0.10076649    -0.03300
C1354       C  0.98425913  0.48657359  0.10791894     0.02200
C1355       C  0.00116519  0.50845146  0.96485436     0.09000
N1356       N  0.95941055  0.46033541  0.95168030     0.65400
H1357       H  0.93896047  0.43862386  0.04114046     0.18300
N1358       N  0.99289266  0.49602736  0.16003982     0.75900
H1359       H  0.01305126  0.51801458  0.06939925     0.09800
C1360       C  0.99067857  0.52084971  0.94118300     0.03500
C1361       C  0.00122204  0.53519182  0.89627705    -0.05200
C1362       C  0.02261698  0.53803884  0.87352801    -0.23600
C1363       C  0.03329939  0.52566700  0.89751958     0.12800
C1364       C  0.02250412  0.51099875  0.94283312    -0.12700
N1365       N  0.96949317  0.51951723  0.96322407     0.64400
H1366       H  0.99260714  0.54461461  0.87983837     0.12300
N1367       N  0.05461829  0.52725772  0.87584200     0.61100
H1368       H  0.03062828  0.50133227  0.96046727     0.08400
O1369       O  0.98485519  0.50795999  0.18353751    -0.40400
O1370       O  0.01117581  0.49598148  0.17853638    -0.39600
O1371       O  0.96919766  0.45043160  0.92659759    -0.39600
O1372       O  0.93953777  0.45753991  0.93538657    -0.37300
O1373       O  0.07474197  0.54080481  0.89785772    -0.38200
O1374       O  0.05279698  0.51204321  0.84135407    -0.34300
O1375       O  0.97132713  0.53201360  0.00381391    -0.35700
O1376       O  0.95005139  0.50958505  0.93691628    -0.40000
C1377       C  0.99458346  0.49004140  0.43151839    -0.13700
C1378       C  0.97995041  0.48047652  0.47686318     0.16700
C1379       C  0.95845362  0.45822901  0.47384246     0.03000
C1380       C  0.95118067  0.44628690  0.42522128    -0.12200
C1381       C  0.96507437  0.45617202  0.37898321    -0.03300
C1382       C  0.98729653  0.47789390  0.38240208     0.02200
C1383       C  0.98608307  0.49470417  0.52613557     0.09000
N1384       N  0.94356535  0.44789942  0.51969779     0.65400
H1385       H  0.93428470  0.42922125  0.42348399     0.18300
N1386       N  0.00162681  0.48858114  0.33602976     0.75900
H1387       H  0.01117700  0.50733926  0.43394113     0.09800
C1388       C  0.00277036  0.49486922  0.56265751     0.03500
C1389       C  0.00951858  0.51005654  0.60725756    -0.05200
C1390       C  0.99983808  0.52517825  0.61516310    -0.23600
C1391       C  0.98233926  0.52419153  0.57960526     0.12800
C1392       C  0.97529188  0.50864908  0.53579037    -0.12700
N1393       N  0.01422966  0.48107836  0.55252952     0.64400
H1394       H  0.02369506  0.51147142  0.63329241     0.12300
N1395       N  0.97318875  0.54037534  0.58502768     0.61100
H1396       H  0.96234360  0.50842394  0.50759444     0.08400
O1397       O  0.99715882  0.50171072  0.30618343    -0.40400
O1398       O  0.02050872  0.48748654  0.32870011    -0.39600
O1399       O  0.92671382  0.45212910  0.52906141    -0.39600
O1400       O  0.94502442  0.43194459  0.54623087    -0.37300
O1401       O  0.98484801  0.56137778  0.56564332    -0.38200
O1402       O  0.95170711  0.53231591  0.59994437    -0.34300
O1403       O  0.03237541  0.48963053  0.52231714    -0.35700
O1404       O  0.00362419  0.45896451  0.56478542    -0.40000
C1405       C  0.85258440  0.07497254  0.91346942    -0.13700
C1406       C  0.84475090  0.07060734  0.96670300     0.16700
C1407       C  0.85547164  0.08983113  0.00371071     0.03000
C1408       C  0.87341504  0.11281533  0.98695859    -0.12200
C1409       C  0.88064771  0.11738431  0.93331210    -0.03300
C1410       C  0.87011432  0.09810271  0.89644093     0.02200
C1411       C  0.82574199  0.04582455  0.98282146     0.09000
N1412       N  0.84741730  0.08665588  0.05776338     0.65400
H1413       H  0.88090120  0.12747555  0.01577917     0.18300
N1414       N  0.87732459  0.10155010  0.84182845     0.75900
H1415       H  0.84513182  0.06025255  0.88483664     0.09800
C1416       C  0.80383407  0.03326452  0.95439328     0.03500
C1417       C  0.78688882  0.00949737  0.96816886    -0.05200
C1418       C  0.79093196  0.99758923  0.01062289    -0.23600
C1419       C  0.81280547  0.01028388  0.03956114     0.12800
C1420       C  0.82995695  0.03408958  0.02527247    -0.12700
N1421       N  0.79822243  0.04460403  0.91210200     0.64400
H1422       H  0.77023169  0.00043782  0.94545884     0.12300
N1423       N  0.81806155  0.99933294  0.08317642     0.61100
H1424       H  0.84689425  0.04330121  0.04693506     0.08400
O1425       O  0.86251587  0.09955999  0.80622767    -0.40400
O1426       O  0.89656811  0.10210156  0.82863567    -0.39600
O1427       O  0.86153728  0.08853900  0.09496409    -0.39600
O1428       O  0.82795845  0.08611360  0.06873899    -0.37300
O1429       O  0.82950967  0.98837605  0.07493308    -0.38200
O1430       O  0.81532174  0.00440414  0.13031547    -0.34300
O1431       O  0.79596747  0.03669068  0.86507091    -0.35700
O1432       O  0.79171720  0.05973815  0.92293177    -0.40000
C1433       C  0.70824218  0.04647259  0.21652638    -0.13700
C1434       C  0.70743927  0.02799662  0.24804956     0.16700
C1435       C  0.70697587  0.02972664  0.30389385     0.03000
C1436       C  0.70862608  0.05038489  0.32724482    -0.12200
C1437       C  0.71137788  0.06990848  0.29595244    -0.03300
C1438       C  0.70994780  0.06722291  0.23986481     0.02200
C1439       C  0.71012193  0.00864792  0.22235525     0.09000
N1440       N  0.70719521  0.01177743  0.33745522     0.65400
H1441       H  0.70946610  0.05175775  0.37035901     0.18300
N1442       N  0.71097535  0.08563771  0.20595968     0.75900
H1443       H  0.70833999  0.04510932  0.17345092     0.09800
C1444       C  0.69144774  0.98430601  0.22158039     0.03500
C1445       C  0.69547759  0.96663524  0.19862419    -0.05200
C1446       C  0.71787468  0.97281788  0.17560360    -0.23600
C1447       C  0.73651046  0.99739885  0.17664093     0.12800
C1448       C  0.73247035  0.01488137  0.20005372    -0.12700
N1449       N  0.66804486  0.97744528  0.24179479     0.64400
H1450       H  0.68075096  0.94806313  0.19770853     0.12300
N1451       N  0.75955063  0.00517405  0.15322762     0.61100
H1452       H  0.74697219  0.03358335  0.20081341     0.08400
O1453       O  0.69196948  0.08625414  0.19643953    -0.40400
O1454       O  0.72976292  0.09872736  0.17921223    -0.39600
O1455       O  0.72622183  0.01065880  0.34162392    -0.39600
O1456       O  0.69014156  0.00019020  0.36978610    -0.37300
O1457       O  0.76324764  0.01232019  0.10549557    -0.38200
O1458       O  0.77725602  0.00974829  0.18291050    -0.34300
O1459       O  0.65420258  0.98206468  0.21493351    -0.35700
O1460       O  0.65963909  0.96301200  0.28055628    -0.40000
C1461       C  0.77200892  0.81442333  0.97906987    -0.13700
C1462       C  0.78917779  0.83826048  0.96573682     0.16700
C1463       C  0.80991553  0.84264583  0.93713696     0.03000
C1464       C  0.81301751  0.82318858  0.92224987    -0.12200
C1465       C  0.79607732  0.79929263  0.93665891    -0.03300
C1466       C  0.77523758  0.79504642  0.96488929     0.02200
C1467       C  0.78478058  0.85808229  0.98192586     0.09000
N1468       N  0.82862272  0.86680446  0.92577261     0.65400
H1469       H  0.82929884  0.82693429  0.90127981     0.18300
N1470       N  0.75663312  0.77105568  0.97747970     0.75900
H1471       H  0.75581755  0.81080715  0.00030046     0.09800
C1472       C  0.77925196  0.87089742  0.94425323     0.03500
C1473       C  0.77337159  0.88816828  0.96146525    -0.05200
C1474       C  0.77240459  0.89279199  0.01609399    -0.23600
C1475       C  0.77871364  0.88039938  0.05361489     0.12800
C1476       C  0.78472397  0.86321869  0.03628746    -0.12700
N1477       N  0.77784384  0.86537272  0.88864846     0.64400
H1478       H  0.76834058  0.89711088  0.93172321     0.12300
N1479       N  0.77912251  0.88497847  0.10945569     0.61100
H1480       H  0.78909572  0.85356482  0.06557912     0.08400
O1481       O  0.74011137  0.75924895  0.94392772    -0.40400
O1482       O  0.75430350  0.76349392  0.02475272    -0.39600
O1483       O  0.84124589  0.88041861  0.96346272    -0.39600
O1484       O  0.83534206  0.87295910  0.87828140    -0.37300
O1485       O  0.76166523  0.87054804  0.13825756    -0.38200
O1486       O  0.79843368  0.90090764  0.13108346    -0.34300
O1487       O  0.75939120  0.84687977  0.87057485    -0.35700
O1488       O  0.79239357  0.88119225  0.85668850    -0.40000
C1489       C  0.61225995  0.96696620  0.89293154    -0.13700
C1490       C  0.61824766  0.94882399  0.88740613     0.16700
C1491       C  0.60151719  0.92666383  0.86336160     0.03000
C1492       C  0.57982010  0.92351359  0.84353815    -0.12200
C1493       C  0.57370426  0.94159900  0.84821627    -0.03300
C1494       C  0.59014743  0.96354248  0.87417818     0.02200
C1495       C  0.64078193  0.95203485  0.91139848     0.09000
N1496       N  0.60585012  0.90684211  0.86129565     0.65400
H1497       H  0.56719676  0.90607660  0.82403522     0.18300
N1498       N  0.58432947  0.98204686  0.88363582     0.75900
H1499       H  0.62482273  0.98394681  0.91315652     0.09800
C1500       C  0.65796414  0.94956230  0.88118170     0.03500
C1501       C  0.67578062  0.94681266  0.90741531    -0.05200
C1502       C  0.67737434  0.94747825  0.96336429    -0.23600
C1503       C  0.66160969  0.95262840  0.99287908     0.12800
C1504       C  0.64340585  0.95452074  0.96673132    -0.12700
N1505       N  0.65754804  0.94996718  0.82407084     0.64400
H1506       H  0.68811246  0.94368916  0.88391943     0.12300
N1507       N  0.66295426  0.95484297  0.04969178     0.61100
H1508       H  0.63048883  0.95677605  0.99013193     0.08400
O1509       O  0.57189720  0.98059963  0.92386380    -0.40400
O1510       O  0.59556031  0.00183951  0.85895093    -0.39600
O1511       O  0.60450863  0.89549386  0.90344332    -0.39600
O1512       O  0.60626479  0.89785556  0.81676438    -0.37300
O1513       O  0.67549431  0.97543875  0.07077042    -0.38200
O1514       O  0.64842333  0.93722794  0.07807237    -0.34300
O1515       O  0.65763643  0.96741436  0.80043376    -0.35700
O1516       O  0.66059826  0.93497310  0.79741967    -0.40000
C1517       C  0.52258240  0.78461458  0.64008052    -0.13700
C1518       C  0.53473422  0.80790396  0.61794487     0.16700
C1519       C  0.55225285  0.81315734  0.57822434     0.03000
C1520       C  0.55709264  0.79514507  0.56115500    -0.12200
C1521       C  0.54560679  0.77207904  0.58456313    -0.03300
C1522       C  0.52787972  0.76676887  0.62390432     0.02200
C1523       C  0.52949347  0.82673728  0.63777884     0.09000
N1524       N  0.56680633  0.83723542  0.55833355     0.65400
H1525       H  0.57126411  0.79984299  0.53211299     0.18300
N1526       N  0.51491651  0.74329323  0.64740255     0.75900
H1527       H  0.50898704  0.78031501  0.67036798     0.09800
C1528       C  0.52093855  0.83828045  0.60355561     0.03500
C1529       C  0.51838816  0.85748536  0.62276608    -0.05200
C1530       C  0.52292011  0.86467461  0.67646613    -0.23600
C1531       C  0.53053414  0.85245616  0.71125508     0.12800
C1532       C  0.53413531  0.83395634  0.69138744    -0.12700
N1533       N  0.51361537  0.82988921  0.55009397     0.64400
H1534       H  0.51198130  0.86633045  0.59593708     0.12300
N1535       N  0.53568396  0.85919920  0.76615626     0.61100
H1536       H  0.54071541  0.82519500  0.71798682     0.08400
O1537       O  0.49673547  0.72664304  0.62372130    -0.40400
O1538       O  0.51921365  0.74028306  0.69500733    -0.39600
O1539       O  0.58060826  0.85397956  0.58977417    -0.39600
O1540       O  0.56911349  0.84089249  0.50871315    -0.37300
O1541       O  0.51862870  0.85485896  0.79754952    -0.38200
O1542       O  0.55589978  0.86418156  0.78518726    -0.34300
O1543       O  0.49595758  0.80889213  0.54218681    -0.35700
O1544       O  0.52181811  0.84460819  0.51178783    -0.40000
C1545       C  0.66509605  0.70294900  0.67663315    -0.13700
C1546       C  0.67241087  0.71328366  0.72744526     0.16700
C1547       C  0.66011031  0.72379116  0.75197938     0.03000
C1548       C  0.64196204  0.72530980  0.72411444    -0.12200
C1549       C  0.63602263  0.71681187  0.67146306    -0.03300
C1550       C  0.64716109  0.70467481  0.64842900     0.02200
C1551       C  0.69519038  0.71634132  0.75003787     0.09000
N1552       N  0.66665773  0.73398755  0.80426311     0.65400
H1553       H  0.63367683  0.73467489  0.74254358     0.18300
N1554       N  0.64141216  0.69513100  0.59540804     0.75900
H1555       H  0.67446553  0.69488315  0.65725942     0.09800
C1556       C  0.69835678  0.69645417  0.75985459     0.03500
C1557       C  0.72106502  0.70032903  0.77527953    -0.05200
C1558       C  0.74092296  0.72386570  0.78189810    -0.23600
C1559       C  0.73769314  0.74376684  0.77100427     0.12800
C1560       C  0.71500546  0.73981190  0.75544867    -0.12700
N1561       N  0.67848722  0.67224363  0.75592320     0.64400
H1562       H  0.72288174  0.68471978  0.78382330     0.12300
N1563       N  0.75735932  0.76811030  0.77373749     0.61100
H1564       H  0.71303191  0.75524975  0.74586591     0.08400
O1565       O  0.62611076  0.67305610  0.58838952    -0.40400
O1566       O  0.65486253  0.70726759  0.55727101    -0.39600
O1567       O  0.67768034  0.75665755  0.81022897    -0.39600
O1568       O  0.65796221  0.72047800  0.84441007    -0.37300
O1569       O  0.75817804  0.78187359  0.81078312    -0.38200
O1570       O  0.77148786  0.77691691  0.73461500    -0.34300
O1571       O  0.67923757  0.65764502  0.72318184    -0.35700
O1572       O  0.66179246  0.66455602  0.78997916    -0.40000
C1573       C  0.68656271  0.86765049  0.29866136    -0.13700
C1574       C  0.67223612  0.84252814  0.29093687     0.16700
C1575       C  0.67040740  0.83317629  0.23889160     0.03000
C1576       C  0.68215346  0.84886696  0.19607160    -0.12200
C1577       C  0.69647453  0.87392980  0.20392658    -0.03300
C1578       C  0.69878653  0.88327389  0.25610143     0.02200
C1579       C  0.65815482  0.82661724  0.33667571     0.09000
N1580       N  0.65701396  0.80771499  0.22896718     0.65400
H1581       H  0.68017799  0.84136112  0.15635458     0.18300
N1582       N  0.71193791  0.90875472  0.26595077     0.75900
H1583       H  0.68761637  0.87537883  0.33773842     0.09800
C1584       C  0.66901022  0.82798079  0.38661808     0.03500
C1585       C  0.65514932  0.81304174  0.42871064    -0.05200
C1586       C  0.63039744  0.79621557  0.42249398    -0.23600
C1587       C  0.61932712  0.79553904  0.37322325     0.12800
C1588       C  0.63317786  0.81064345  0.33118599    -0.12700
N1589       N  0.69435269  0.84362263  0.39464301     0.64400
H1590       H  0.66420965  0.81389406  0.46586752     0.12300
N1591       N  0.59395103  0.78005776  0.36551656     0.61100
H1592       H  0.62420798  0.81012241  0.29413363     0.08400
O1593       O  0.73274979  0.91834690  0.28634171    -0.40400
O1594       O  0.70128219  0.92076499  0.26290441    -0.39600
O1595       O  0.63860287  0.79896994  0.19927412    -0.39600
O1596       O  0.66573225  0.79469828  0.24257366    -0.37300
O1597       O  0.57944483  0.78571768  0.38566215    -0.38200
O1598       O  0.58629769  0.76285401  0.33244895    -0.34300
O1599       O  0.70175530  0.86059799  0.42826711    -0.35700
O1600       O  0.70903899  0.83816035  0.37471594    -0.40000
C1601       C  0.66838556  0.83322751  0.87346905    -0.13700
C1602       C  0.66200113  0.84367505  0.83190613     0.16700
C1603       C  0.66228457  0.86554122  0.84154798     0.03000
C1604       C  0.66910968  0.87663398  0.89173280    -0.12200
C1605       C  0.67638160  0.86667599  0.93250246    -0.03300
C1606       C  0.67578000  0.84468379  0.92331323     0.02200
C1607       C  0.65344652  0.83069000  0.78009297     0.09000
N1608       N  0.65744421  0.87758624  0.79955342     0.65400
H1609       H  0.67044526  0.89407396  0.89760230     0.18300
N1610       N  0.68251500  0.83378943  0.96442906     0.75900
H1611       H  0.66756824  0.81605833  0.86722344     0.09800
C1612       C  0.66730967  0.82328556  0.75050940     0.03500
C1613       C  0.65732087  0.80839877  0.70551534    -0.05200
C1614       C  0.63365673  0.80091894  0.68868037    -0.23600
C1615       C  0.62041878  0.80974931  0.71653596     0.12800
C1616       C  0.63027318  0.82417841  0.76196389    -0.12700
N1617       N  0.69159839  0.83085582  0.76560673     0.64400
H1618       H  0.66792096  0.80209143  0.68470145     0.12300
N1619       N  0.59672804  0.80390272  0.69997584     0.61100
H1620       H  0.61937858  0.82971204  0.78420887     0.08400
O1621       O  0.70188367  0.83331191  0.96065274    -0.40400
O1622       O  0.66763774  0.82187922  0.00070604    -0.39600
O1623       O  0.63856240  0.87904458  0.80073923    -0.39600
O1624       O  0.67343963  0.88938348  0.76515091    -0.37300
O1625       O  0.57853146  0.78752547  0.72388626    -0.38200
O1626       O  0.59421262  0.81791629  0.66872914    -0.34300
O1627       O  0.69699974  0.81545427  0.78138486    -0.35700
O1628       O  0.70816059  0.85213818  0.75551314    -0.40000
C1629       C  0.29414077  0.48001290  0.67557688    -0.13700
C1630       C  0.27895493  0.45990753  0.64357642     0.16700
C1631       C  0.28694291  0.44382399  0.62873393     0.03000
C1632       C  0.30972472  0.44824764  0.64477441    -0.12200
C1633       C  0.32516144  0.46849960  0.67606704    -0.03300
C1634       C  0.31702018  0.48441358  0.69192627     0.02200
C1635       C  0.25531200  0.45630563  0.62405035     0.09000
N1636       N  0.27194156  0.42261681  0.59792678     0.65400
H1637       H  0.31532405  0.43555802  0.63254144     0.18300
N1638       N  0.33216576  0.50577883  0.72209646     0.75900
H1639       H  0.28855972  0.49285699  0.68650244     0.09800
C1640       C  0.23777610  0.45532722  0.65938797     0.03500
C1641       C  0.21525606  0.45047951  0.63989363    -0.05200
C1642       C  0.20941752  0.44624880  0.58526079    -0.23600
C1643       C  0.22746447  0.44844685  0.54958752     0.12800
C1644       C  0.25008977  0.45352017  0.56914460    -0.12700
N1645       N  0.24197950  0.45775333  0.71561685     0.64400
H1646       H  0.20183758  0.44884609  0.66840449     0.12300
N1647       N  0.22314623  0.44542008  0.49345764     0.61100
H1648       H  0.26364631  0.45507794  0.54112946     0.08400
O1649       O  0.32729866  0.50708393  0.77027163    -0.40400
O1650       O  0.34792180  0.52454186  0.69859624    -0.39600
O1651       O  0.27811424  0.42075111  0.55121616    -0.39600
O1652       O  0.25495535  0.40431617  0.62027006    -0.37300
O1653       O  0.22690667  0.46331661  0.46533033    -0.38200
O1654       O  0.21961800  0.42622203  0.47109985    -0.34300
O1655       O  0.24479624  0.47641780  0.73931651    -0.35700
O1656       O  0.23872924  0.43970861  0.74250953    -0.40000
C1657       C  0.31224215  0.39550550  0.87669579    -0.13700
C1658       C  0.31388828  0.37455492  0.87868588     0.16700
C1659       C  0.33474457  0.37514256  0.85942613     0.03000
C1660       C  0.35359085  0.39662124  0.83798848    -0.12200
C1661       C  0.35185341  0.41766351  0.83474856    -0.03300
C1662       C  0.33083089  0.41690764  0.85501734     0.02200
C1663       C  0.29388710  0.35266911  0.90327759     0.09000
N1664       N  0.33692004  0.35401743  0.86119782     0.65400
H1665       H  0.36934861  0.39660084  0.82255772     0.18300
N1666       N  0.32792761  0.43764248  0.85399340     0.75900
H1667       H  0.29630034  0.39520920  0.89208578     0.09800
C1668       C  0.29139180  0.35106679  0.95892825     0.03500
C1669       C  0.27084281  0.33191872  0.98166734    -0.05200
C1670       C  0.25184483  0.31443280  0.95007847    -0.23600
C1671       C  0.25477332  0.31565591  0.89402699     0.12800
C1672       C  0.27580651  0.33464920  0.87123333    -0.12700
N1673       N  0.30889201  0.36969049  0.99267147     0.64400
H1674       H  0.26925434  0.33167797  0.02493709     0.12300
N1675       N  0.23619695  0.29857089  0.85967552     0.61100
H1676       H  0.27755430  0.33595508  0.82804580     0.08400
O1677       O  0.31549003  0.43969620  0.81754288    -0.40400
O1678       O  0.33407628  0.45146374  0.89405404    -0.39600
O1679       O  0.32975410  0.33953065  0.82224384    -0.39600
O1680       O  0.34855439  0.35135885  0.89859337    -0.37300
O1681       O  0.22192780  0.30401956  0.83735625    -0.38200
O1682       O  0.23644976  0.27980965  0.84517426    -0.34300
O1683       O  0.30593081  0.38695973  0.00680453    -0.35700
O1684       O  0.32469526  0.36667973  0.01563911    -0.40000
C1685       C  0.46339482  0.59349686  0.69061969    -0.13700
C1686       C  0.46475488  0.59837712  0.63581881     0.16700
C1687       C  0.44779816  0.58050485  0.60119539     0.03000
C1688       C  0.43014048  0.55814131  0.62180743    -0.12200
C1689       C  0.42943458  0.55269757  0.67646115    -0.03300
C1690       C  0.44612827  0.57096014  0.71111390     0.02200
C1691       C  0.48507782  0.62160408  0.61585828     0.09000
N1692       N  0.44952514  0.58393626  0.54467664     0.65400
H1693       H  0.41788692  0.54441109  0.59407951     0.18300
N1694       N  0.44637045  0.56678838  0.76697397     0.75900
H1695       H  0.47632486  0.60713164  0.71762250     0.09800
C1696       C  0.48149793  0.63921203  0.59030445     0.03500
C1697       C  0.50152078  0.66144526  0.57532865    -0.05200
C1698       C  0.52515946  0.66677760  0.58683823    -0.23600
C1699       C  0.52861813  0.64869169  0.61042065     0.12800
C1700       C  0.50868908  0.62642132  0.62448377    -0.12700
N1701       N  0.45777857  0.63559678  0.58314682     0.64400
H1702       H  0.49850001  0.67518581  0.55783590     0.12300
N1703       N  0.55228121  0.65261033  0.62030165     0.61100
H1704       H  0.51167171  0.61286722  0.64316097     0.08400
O1705       O  0.46124388  0.56123500  0.78550378    -0.40400
O1706       O  0.43504858  0.57292887  0.79840621    -0.39600
O1707       O  0.46701979  0.58468982  0.51998913    -0.39600
O1708       O  0.43157342  0.58151918  0.51868079    -0.37300
O1709       O  0.56095276  0.65777905  0.66682687    -0.38200
O1710       O  0.56214382  0.64601894  0.58591877    -0.34300
O1711       O  0.44607961  0.63593847  0.62320855    -0.35700
O1712       O  0.45054000  0.63673163  0.53701000    -0.40000
C1713       C  0.37533763  0.34169639  0.47727259    -0.13700
C1714       C  0.38081323  0.34629419  0.53176833     0.16700
C1715       C  0.38623126  0.33063911  0.56073466     0.03000
C1716       C  0.38602907  0.31100209  0.53512981    -0.12200
C1717       C  0.38076985  0.30658996  0.48059015    -0.03300
C1718       C  0.37590551  0.32255313  0.45115053     0.02200
C1719       C  0.38033341  0.36715933  0.55770508     0.09000
N1720       N  0.39252790  0.33471945  0.61597192     0.65400
H1721       H  0.39002723  0.29910693  0.55814356     0.18300
N1722       N  0.37315748  0.32064026  0.39427976     0.75900
H1723       H  0.37103559  0.35340455  0.45444837     0.09800
C1724       C  0.39252699  0.39068068  0.53554235     0.03500
C1725       C  0.39155709  0.40974714  0.56090235    -0.05200
C1726       C  0.37930246  0.40623629  0.60935825    -0.23600
C1727       C  0.36651645  0.38261398  0.63067578     0.12800
C1728       C  0.36686112  0.36338853  0.60446134    -0.12700
N1729       N  0.40740662  0.39594178  0.48940708     0.64400
H1730       H  0.40199659  0.42780997  0.54450114     0.12300
N1731       N  0.35317645  0.37783589  0.67909994     0.61100
H1732       H  0.35657417  0.34536520  0.62103373     0.08400
O1733       O  0.35722601  0.32370158  0.37203234    -0.40400
O1734       O  0.38948516  0.32074108  0.36607578    -0.39600
O1735       O  0.37867178  0.31969064  0.65011496    -0.39600
O1736       O  0.41361391  0.35065263  0.62945218    -0.37300
O1737       O  0.36098692  0.37322904  0.72103263    -0.38200
O1738       O  0.33177151  0.37373048  0.67763575    -0.34300
O1739       O  0.40227145  0.40327779  0.44744633    -0.35700
O1740       O  0.42775400  0.39750509  0.49360667    -0.40000
C1741       C  0.69584069  0.55878060  0.29514936    -0.13700
C1742       C  0.70133402  0.54020809  0.29358821     0.16700
C1743       C  0.68392822  0.51731208  0.27360110     0.03000
C1744       C  0.66121508  0.51320254  0.25663117    -0.12200
C1745       C  0.65543014  0.53162794  0.25974360    -0.03300
C1746       C  0.67324424  0.55475005  0.27833642     0.02200
C1747       C  0.72545872  0.54526636  0.31247573     0.09000
N1748       N  0.68869787  0.49778797  0.27268751     0.65400
H1749       H  0.64772825  0.49528309  0.24322891     0.18300
N1750       N  0.66874103  0.57447860  0.27960398     0.75900
H1751       H  0.70922646  0.57656687  0.30950702     0.09800
C1752       C  0.74434630  0.55125309  0.27627083     0.03500
C1753       C  0.76710329  0.55649126  0.29490463    -0.05200
C1754       C  0.77197317  0.55687155  0.34981155    -0.23600
C1755       C  0.75308936  0.55141133  0.38624569     0.12800
C1756       C  0.73002720  0.54539845  0.36730954    -0.12700
N1757       N  0.74109765  0.55363441  0.22069101     0.64400
H1758       H  0.78139587  0.56140326  0.26607473     0.12300
N1759       N  0.75696606  0.55189191  0.44243761     0.61100
H1760       H  0.71569481  0.54118967  0.39560578     0.08400
O1761       O  0.67211163  0.58697676  0.23823308    -0.40400
O1762       O  0.66478304  0.58148594  0.32350490    -0.39600
O1763       O  0.68191118  0.48309886  0.31106563    -0.39600
O1764       O  0.69606006  0.49299361  0.23035829    -0.37300
O1765       O  0.76184765  0.57061749  0.46888355    -0.38200
O1766       O  0.75137140  0.53249035  0.46660384    -0.34300
O1767       O  0.74382173  0.57334905  0.20326074    -0.35700
O1768       O  0.73982945  0.53793983  0.18827882    -0.40000
C1769       C  0.66993842  0.60441592  0.06014741    -0.13700
C1770       C  0.67224990  0.62697605  0.07095129     0.16700
C1771       C  0.65364483  0.62798225  0.09840812     0.03000
C1772       C  0.63357410  0.60655656  0.11646820    -0.12200
C1773       C  0.63168607  0.58394083  0.10754624    -0.03300
C1774       C  0.64994712  0.58301657  0.07801392     0.02200
C1775       C  0.69379253  0.64898381  0.05076957     0.09000
N1776       N  0.65538291  0.65066596  0.11012817     0.65400
H1777       H  0.61990884  0.60774445  0.13948055     0.18300
N1778       N  0.64819642  0.56046695  0.06464983     0.75900
H1779       H  0.68371353  0.60340325  0.03717254     0.09800
C1780       C  0.71710421  0.65579483  0.06953823     0.03500
C1781       C  0.73741370  0.67428980  0.04395500    -0.05200
C1782       C  0.73492300  0.68577347  0.99873077    -0.23600
C1783       C  0.71154641  0.67982113  0.98183071     0.12800
C1784       C  0.69123712  0.66166675  0.00816900    -0.12700
N1785       N  0.72040623  0.64341070  0.11321023     0.64400
H1786       H  0.75520850  0.67852417  0.05738696     0.12300
N1787       N  0.70811491  0.69163562  0.93724729     0.61100
H1788       H  0.67338054  0.65659277  0.99351481     0.08400
O1789       O  0.66230838  0.55461609  0.08622078    -0.40400
O1790       O  0.63563772  0.54859162  0.02503381    -0.39600
O1791       O  0.64316744  0.65742152  0.08335054    -0.39600
O1792       O  0.66565106  0.66174662  0.15251732    -0.37300
O1793       O  0.70448012  0.70900993  0.94523421    -0.38200
O1794       O  0.70319278  0.68140432  0.89224456    -0.34300
O1795       O  0.72279234  0.62530484  0.10437836    -0.35700
O1796       O  0.72532809  0.65307273  0.15883079    -0.40000
C1797       C  0.50757376  0.41067608  0.25020273    -0.13700
C1798       C  0.51250318  0.40080302  0.29502472     0.16700
C1799       C  0.53502640  0.41409520  0.32055777     0.03000
C1800       C  0.55198341  0.43719000  0.30198734    -0.12200
C1801       C  0.54711912  0.44736309  0.25730940    -0.03300
C1802       C  0.52460019  0.43366650  0.23106122     0.02200
C1803       C  0.49438151  0.37610623  0.31294874     0.09000
N1804       N  0.54104176  0.40417042  0.36495372     0.65400
H1805       H  0.56908051  0.44722069  0.32278707     0.18300
N1806       N  0.51839074  0.44306596  0.18593702     0.75900
H1807       H  0.49034391  0.40045377  0.22997618     0.09800
C1808       C  0.47719492  0.37219851  0.35253088     0.03500
C1809       C  0.45961663  0.34847814  0.36654935    -0.05200
C1810       C  0.45857784  0.32847629  0.34076777    -0.23600
C1811       C  0.47600045  0.33248911  0.30158832     0.12800
C1812       C  0.49375017  0.35614031  0.28829023    -0.12700
N1813       N  0.47670017  0.39213264  0.37693746     0.64400
H1814       H  0.44611877  0.34570132  0.39602538     0.12300
N1815       N  0.47601319  0.31266165  0.27530148     0.61100
H1816       H  0.50691420  0.35896013  0.25791127     0.08400
O1817       O  0.50649626  0.45368831  0.19234443    -0.40400
O1818       O  0.52156480  0.43758069  0.13951844    -0.39600
O1819       O  0.55235400  0.39302870  0.35735738    -0.39600
O1820       O  0.53859452  0.40985391  0.41174415    -0.37300
O1821       O  0.46650218  0.30610266  0.22975334    -0.38200
O1822       O  0.48918086  0.30477794  0.29295047    -0.34300
O1823       O  0.46195028  0.39824910  0.36040287    -0.35700
O1824       O  0.48779484  0.40073994  0.42025383    -0.40000
C1825       C  0.63169622  0.68105979  0.40254435    -0.13700
C1826       C  0.61433028  0.65683772  0.41310802     0.16700
C1827       C  0.59459657  0.65185359  0.44608623     0.03000
C1828       C  0.59175094  0.67082180  0.46490351    -0.12200
C1829       C  0.60856993  0.69502167  0.45281971    -0.03300
C1830       C  0.62904626  0.70012622  0.42226311     0.02200
C1831       C  0.61533239  0.63699800  0.38459832     0.09000
N1832       N  0.57676280  0.62756904  0.45921907     0.65400
H1833       H  0.57617120  0.66652046  0.48929778     0.18300
N1834       N  0.64659910  0.72439756  0.40853116     0.75900
H1835       H  0.64706277  0.68515479  0.37756751     0.09800
C1836       C  0.61513148  0.63628947  0.32847126     0.03500
C1837       C  0.61283240  0.61604345  0.30204219    -0.05200
C1838       C  0.60993502  0.59576214  0.33028166    -0.23600
C1839       C  0.61202483  0.59722806  0.38644107     0.12800
C1840       C  0.61479496  0.61782055  0.41302191    -0.12700
N1841       N  0.61507211  0.65504323  0.29765940     0.64400
H1842       H  0.61156796  0.61565293  0.25890248     0.12300
N1843       N  0.61098816  0.57792119  0.41706840     0.61100
H1844       H  0.61593674  0.61857330  0.45615138     0.08400
O1845       O  0.64468394  0.73315950  0.36500569    -0.40400
O1846       O  0.66590141  0.73546137  0.43512077    -0.39600
O1847       O  0.57878016  0.61839871  0.50204053    -0.39600
O1848       O  0.55691666  0.61739715  0.43445746    -0.37300
O1849       O  0.62983208  0.57663451  0.42337409    -0.38200
O1850       O  0.59245755  0.56453509  0.44429506    -0.34300
O1851       O  0.63315905  0.66868014  0.26948458    -0.35700
O1852       O  0.59563667  0.65521848  0.29136685    -0.40000
C1853       C  0.49867344  0.51570889  0.03852451    -0.13700
C1854       C  0.49774629  0.50167333  0.99447652     0.16700
C1855       C  0.51319204  0.49180102  0.99467654     0.03000
C1856       C  0.52896086  0.49617093  0.03791420    -0.12200
C1857       C  0.52952363  0.50986928  0.08236387    -0.03300
C1858       C  0.51395863  0.51961402  0.08216371     0.02200
C1859       C  0.48156000  0.49874373  0.94794760     0.09000
N1860       N  0.51272110  0.47678913  0.95188477     0.65400
H1861       H  0.54063055  0.48846258  0.03693070     0.18300
N1862       N  0.51412057  0.53449473  0.12490267     0.75900
H1863       H  0.48783428  0.52433859  0.03867320     0.09800
C1864       C  0.45732357  0.49295467  0.95510220     0.03500
C1865       C  0.44310259  0.49158171  0.91099310    -0.05200
C1866       C  0.45205819  0.49511671  0.85865734    -0.23600
C1867       C  0.47638155  0.50124404  0.85150943     0.12800
C1868       C  0.49080621  0.50323678  0.89578553    -0.12700
N1869       N  0.44638249  0.48710996  0.00664699     0.64400
H1870       H  0.42440006  0.48635004  0.91770249     0.12300
N1871       N  0.48690094  0.50577936  0.79962137     0.61100
H1872       H  0.50957457  0.50874471  0.88920061     0.08400
O1873       O  0.49741950  0.52580265  0.15897826    -0.40400
O1874       O  0.52862378  0.55701209  0.12382471    -0.39600
O1875       O  0.53133007  0.48340778  0.92386304    -0.39600
O1876       O  0.49519674  0.45546440  0.94751707    -0.37300
O1877       O  0.49201628  0.52515207  0.77586383    -0.38200
O1878       O  0.49494408  0.49272705  0.78200673    -0.34300
O1879       O  0.43829131  0.49972152  0.02662397    -0.35700
O1880       O  0.44152474  0.46739093  0.02835171    -0.40000
C1881       C  0.49685871  0.48568109  0.41549574    -0.13700
C1882       C  0.49759771  0.50512018  0.44271734     0.16700
C1883       C  0.51074829  0.52860229  0.42106937     0.03000
C1884       C  0.52351063  0.53231478  0.37338858    -0.12200
C1885       C  0.52376576  0.51299856  0.34735487    -0.03300
C1886       C  0.50970687  0.48936727  0.36815293     0.02200
C1887       C  0.48307449  0.50015213  0.49163629     0.09000
N1888       N  0.51259676  0.54901536  0.44883861     0.65400
H1889       H  0.53465890  0.55063390  0.35887343     0.18300
N1890       N  0.50833922  0.46890436  0.34171264     0.75900
H1891       H  0.48616663  0.46749243  0.43108645     0.09800
C1892       C  0.46190501  0.50150440  0.49082840     0.03500
C1893       C  0.44830449  0.49670654  0.53711221    -0.05200
C1894       C  0.45497671  0.48993324  0.58470652    -0.23600
C1895       C  0.47591609  0.48809062  0.58535138     0.12800
C1896       C  0.48988073  0.49325132  0.53883291    -0.12700
N1897       N  0.45326644  0.50639740  0.44250781     0.64400
H1898       H  0.43181574  0.49747750  0.53513922     0.12300
N1899       N  0.48383756  0.48231920  0.63338149     0.61100
H1900       H  0.50618069  0.49212936  0.53960278     0.08400
O1901       O  0.51854780  0.45834084  0.36208791    -0.40400
O1902       O  0.49308236  0.45860277  0.30487564    -0.39600
O1903       O  0.52583260  0.55697343  0.48973809    -0.39600
O1904       O  0.50499364  0.56169826  0.42710810    -0.37300
O1905       O  0.48060667  0.46136524  0.64028320    -0.38200
O1906       O  0.49432396  0.49830578  0.66880444    -0.34300
O1907       O  0.44420142  0.49032866  0.40675233    -0.35700
O1908       O  0.45054126  0.52457276  0.43979670    -0.40000
loop_ 
_geom_bond_atom_site_label_1 
_geom_bond_atom_site_label_2 
_geom_bond_distance 
_geom_bond_site_symmetry_2 
_ccdc_geom_bond_type 
O1          Cr19   1.989       .  S
O1            C9   1.263       .  A
O2          Cr19   2.039       .  S
O2            C3   1.273       .  A
C3            O4   1.259       .  A
C3         C1857   1.501       .  S
O4          Cr20   1.972       .  S
O5          Cr20   2.035       .  S
O5            C6   1.273       .  A
C6            O7   1.255       .  A
C6         C1885   1.479       .  S
O7          Cr21   1.955       .  S
O8          Cr21   2.011       .  S
O8            C9   1.268       .  A
C9         C1801   1.492       .  S
O10         Cr19   2.049       .  S
O10          C18   1.276       .  A
O11         Cr19   1.972       .  S
O11          C12   1.262       .  A
C12          O13   1.270       .  A
C12        C1773   1.484       .  S
O13         Cr20   2.015       .  S
O14         Cr20   1.960       .  S
O14          C15   1.254       .  A
C15          O16   1.266       .  A
C15        C1838   1.487       .  S
O16         Cr21   2.026       .  S
O17         Cr21   1.961       .  S
O17          C18   1.257       .  A
C18        C1745   1.489       .  S
Cr19         O22   1.767       .  S
Cr20         O22   1.759       .  S
Cr21         O22   1.765       .  S
O23         Cr41   2.043       .  S
O23          C31   1.274       .  A
O24         Cr41   1.958       .  S
O24          C25   1.261       .  A
C25          O26   1.276       .  A
C25        C1661   1.490       .  S
O26         Cr42   2.030       .  S
O27         Cr42   1.973       .  S
O27          C28   1.254       .  A
C28          O29   1.268       .  A
C28        C1726   1.488       .  S
O29         Cr43   2.029       .  S
O30         Cr43   1.964       .  S
O30          C31   1.260       .  A
C31        C1633   1.493       .  S
O32         Cr41   1.989       .  S
O32          C40   1.264       .  A
O33         Cr41   2.031       .  S
O33          C34   1.270       .  A
C34          O35   1.259       .  A
C34        C1866   1.500       .  S
O35         Cr42   1.984       .  S
O36         Cr42   2.052       .  S
O36          C37   1.276       .  A
C37          O38   1.252       .  A
C37        C1894   1.479       .  S
O38         Cr43   1.939       .  S
O39         Cr43   2.011       .  S
O39          C40   1.268       .  A
C40        C1689   1.494       .  S
Cr41         O44   1.767       .  S
Cr42         O44   1.767       .  S
Cr43         O44   1.758       .  S
O45         Cr63   1.980       .  S
O45          C53   1.265       .  A
O46         Cr63   2.028       .  S
O46          C47   1.269       .  A
C47          O48   1.259       .  A
C47        C1586   1.496       .  S
O48         Cr64   1.975       .  S
O49         Cr64   2.033       .  S
O49          C50   1.273       .  A
C50          O51   1.256       .  A
C50        C1614   1.489       .  S
O51         Cr65   1.956       .  S
O52         Cr65   2.022       .  S
O52          C53   1.271       .  A
C53        C1521   1.488       .  S
O54         Cr63   2.030       .  S
O54          C62   1.270       .  A
O55         Cr63   1.967       .  S
O55          C56   1.262       .  A
C56          O57   1.270       .  A
C56        C1829   1.481       .  S
O57         Cr64   2.019       .  S
O58         Cr64   1.962       .  S
O58          C59   1.253       .  A
C59          O60   1.267       .  A
C59        C1549   1.483       .  S
O60         Cr65   2.023       .  S
O61         Cr65   1.972       .  S
O61          C62   1.258       .  A
C62        C1698   1.486       .  S
Cr63         O66   1.768       .  S
Cr64         O66   1.763       .  S
Cr65         O66   1.763       .  S
O67         Cr85   2.029       .  S
O67          C75   1.270       .  A
O68         Cr85   1.974       .  S
O68          C69   1.262       .  A
C69          O70   1.271       .  A
C69        C1446   1.490       .  S
O70         Cr86   2.017       .  S
O71         Cr86   1.955       .  S
O71          C72   1.252   1_554  A
C72          O73   1.269       .  A
C72        C1502   1.487       .  S
O73         Cr87   2.028       .  S
O74         Cr87   1.962       .  S
O74          C75   1.258   1_556  A
C75        C1418   1.492       .  S
O76         Cr85   1.988       .  S
O76          C84   1.265       .  A
O77         Cr85   2.027       .  S
O77          C78   1.270       .  A
C78          O79   1.261       .  A
C78        C1577   1.488       .  S
O79         Cr86   1.977       .  S
O80         Cr86   2.036       .  S
O80          C81   1.270   1_554  A
C81          O82   1.255       .  A
C81        C1605   1.472       .  S
O82         Cr87   1.963       .  S
O83         Cr87   2.013       .  S
O83          C84   1.270   1_556  A
C84        C1474   1.494       .  S
Cr85         O88   1.767       .  S
Cr86         O88   1.763       .  S
Cr87         O88   1.760   1_556  S
O89        Cr107   1.997       .  S
O89          C97   1.267       .  A
O90        Cr107   2.016       .  S
O90          C91   1.269       .  A
C91          O92   1.262       .  A
C91        C1353   1.499       .  S
O92        Cr108   1.988       .  S
O93        Cr108   2.034       .  S
O93          C94   1.269       .  A
C94          O95   1.250       .  A
C94        C1381   1.466       .  S
O95        Cr109   1.937       .  S
O96        Cr109   2.003       .  S
O96          C97   1.266       .  A
C97        C1297   1.486       .  S
O98        Cr107   2.028       .  S
O98         C106   1.268       .  A
O99        Cr107   1.980       .  S
O99         C100   1.267       .  A
C100        O101   1.268       .  A
C100       C1269   1.488       .  S
O101       Cr108   2.008       .  S
O102       Cr108   1.967       .  S
O102        C103   1.257       .  A
C103        O104   1.266       .  A
C103       C1325   1.490       .  S
O104       Cr109   2.023       .  S
O105       Cr109   1.961       .  S
O105        C106   1.256       .  A
C106       C1250   1.467       .  S
Cr107       O110   1.765       .  S
Cr108       O110   1.771       .  S
Cr109       O110   1.762       .  S
O111       Cr129   2.009       .  S
O111        C119   1.261       .  A
O112       Cr129   2.026       .  S
O112        C113   1.274       .  A
C113        O114   1.262       .  A
C113       C1157   1.488       .  S
O114       Cr130   1.954       .  S
O115       Cr130   1.984       .  S
O115        C116   1.260       .  A
C116        O117   1.263       .  A
C116       C1213   1.476       .  S
O117       Cr131   2.002       .  S
O118       Cr131   1.970       .  S
O118        C119   1.253       .  A
C119       C1138   1.485       .  S
O120       Cr129   2.032       .  S
O120        C128   1.276       .  A
O121       Cr129   2.022       .  S
O121        C122   1.263       .  A
C122        O123   1.254       .  A
C122       C1362   1.503       .  S
O123       Cr130   1.969       .  S
O124       Cr130   1.987       .  S
O124        C125   1.262       .  A
C125        O126   1.260       .  A
C125       C1390   1.454   1_455  S
O126       Cr131   1.983       .  S
O127       Cr131   1.962       .  S
O127        C128   1.261       .  A
C128       C1185   1.482       .  S
Cr129       O132   1.783       .  S
Cr130       O132   1.769       .  S
Cr131       O132   1.783       .  S
O133       Cr151   2.002       .  S
O133        C141   1.266       .  A
O134       Cr151   2.023       .  S
O134        C135   1.267       .  A
C135        O136   1.259       .  A
C135       C1082   1.489       .  S
O136       Cr152   1.979       .  S
O137       Cr152   2.028       .  S
O137        C138   1.272       .  A
C138        O139   1.259       .  A
C138       C1110   1.480       .  S
O139       Cr153   1.971       .  S
O140       Cr153   2.002       .  S
O140        C141   1.266       .  A
C141       C1045   1.494       .  S
O142       Cr151   2.027       .  S
O142        C150   1.271       .  A
O143       Cr151   1.977       .  S
O143        C144   1.263       .  A
C144        O145   1.271       .  A
C144       C1558   1.491       .  S
O145       Cr152   2.014       .  S
O146       Cr152   1.975       .  S
O146        C147   1.256       .  A
C147        O148   1.265       .  A
C147       C1782   1.480       .  S
O148       Cr153   2.016       .  S
O149       Cr153   1.980       .  S
O149        C150   1.262       .  A
C150       C1465   1.490       .  S
Cr151       O154   1.769       .  S
Cr152       O154   1.762       .  S
Cr153       O154   1.763       .  S
O155       Cr173   2.035       .  S
O155        C163   1.270       .  A
O156       Cr173   1.983       .  S
O156        C157   1.264       .  A
C157        O158   1.271       .  A
C157       C1222   1.496       .  S
O158       Cr174   2.016       .  S
O159       Cr174   1.961       .  S
O159        C160   1.252       .  A
C160        O161   1.265       .  A
C160       C1026   1.477       .  S
O161       Cr175   2.017       .  S
O162       Cr175   1.964       .  S
O162        C163   1.258       .  A
C163       C1306   1.486       .  S
O164       Cr173   1.998       .  S
O164        C172   1.266       .  A
O165       Cr173   2.019       .  S
O165        C166   1.270       .  A
C166        O167   1.261       .  A
C166       C1073   1.495       .  S
O167       Cr174   1.979       .  S
O168       Cr174   2.044       .  S
O168        C169   1.274       .  A
C169        O170   1.256       .  A
C169       C1101   1.479       .  S
O170       Cr175   1.953       .  S
O171       Cr175   2.010       .  S
O171        C172   1.269       .  A
C172       C1754   1.495       .  S
Cr173       O176   1.769       .  S
Cr174       O176   1.767       .  S
Cr175       O176   1.763       .  S
O177       Cr195   2.026       .  S
O177        C185   1.269       .  A
O178       Cr195   1.963       .  S
O178        C179   1.263       .  A
C179        O180   1.273       .  A
C179        C942   1.489       .  S
O180       Cr196   2.024       .  S
O181       Cr196   1.963       .  S
O181        C182   1.254       .  A
C182        O183   1.266       .  A
C182       C1437   1.491       .  S
O183       Cr197   2.022       .  S
O184       Cr197   1.960       .  S
O184        C185   1.257       .  A
C185        C914   1.487       .  S
O186       Cr195   1.987       .  S
O186        C194   1.267       .  A
O187       Cr195   2.024       .  S
O187        C188   1.267       .  A
C188        O189   1.260       .  A
C188        C961   1.492       .  S
O189       Cr196   1.982       .  S
O190       Cr196   2.042       .  S
O190        C191   1.274       .  A
C191        O192   1.253       .  A
C191        C998   1.480       .  S
O192       Cr197   1.943       .  S
O193       Cr197   2.011       .  S
O193        C194   1.268       .  A
C194       C1241   1.492       .  S
Cr195       O198   1.767       .  S
Cr196       O198   1.764       .  S
Cr197       O198   1.760       .  S
O199       Cr217   1.986       .  S
O199        C207   1.263       .  A
O200       Cr217   2.038       .  S
O200        C201   1.273       .  A
C201        O202   1.260       .  A
C201        C970   1.494       .  S
O202       Cr218   1.970       .  S
O203       Cr218   2.058       .  S
O203        C204   1.275       .  A
C204        O205   1.251       .  A
C204        C989   1.480   1_556  S
O205       Cr219   1.942       .  S
O206       Cr219   2.007       .  S
O206        C207   1.267       .  A
C207       C1409   1.484       .  S
O208       Cr217   2.045       .  S
O208        C216   1.275       .  A
O209       Cr217   1.968       .  S
O209        C210   1.261       .  A
C210        O211   1.273       .  A
C210        C877   1.493       .  S
O211       Cr218   2.024       .  S
O212       Cr218   1.960       .  S
O212        C213   1.253       .  A
C213        O214   1.267       .  A
C213       C1278   1.485       .  S
O214       Cr219   2.029       .  S
O215       Cr219   1.955       .  S
O215        C216   1.257       .  A
C216        C849   1.483       .  S
Cr217       O220   1.765       .  S
Cr218       O220   1.764       .  S
Cr219       O220   1.756       .  S
O221       Cr239   1.993       .  S
O221        C229   1.266       .  A
O222       Cr239   2.036       .  S
O222        C223   1.271       .  A
C223        O224   1.262       .  A
C223        C793   1.500       .  S
O224       Cr240   1.976       .  S
O225       Cr240   2.043       .  S
O225        C226   1.273       .  A
C226        O227   1.253       .  A
C226        C821   1.483       .  S
O227       Cr241   1.947       .  S
O228       Cr241   2.012       .  S
O228        C229   1.269       .  A
C229       C1642   1.496       .  S
O230       Cr239   2.046       .  S
O230        C238   1.272       .  A
O231       Cr239   1.976       .  S
O231        C232   1.266       .  A
C232        O233   1.269       .  A
C232       C1334   1.484       .  S
O233       Cr240   2.014       .  S
O234       Cr240   1.965       .  S
O234        C235   1.253       .  A
C235        O236   1.268       .  A
C235        C886   1.483       .  S
O236       Cr241   2.023       .  S
O237       Cr241   1.961       .  S
O237        C238   1.255       .  A
C238       C1194   1.481       .  S
Cr239       O242   1.768       .  S
Cr240       O242   1.766       .  S
Cr241       O242   1.757       .  S
O243       Cr261   2.043       .  S
O243        C251   1.272       .  A
O244       Cr261   1.970       .  S
O244        C245   1.264       .  A
C245        O246   1.269       .  A
C245        C774   1.488       .  S
O246       Cr262   2.014       .  S
O247       Cr262   1.956       .  S
O247        C248   1.255   1_554  A
C248        O249   1.269       .  A
C248       C1670   1.491       .  S
O249       Cr263   2.031       .  S
O250       Cr263   1.976       .  S
O250        C251   1.260   1_556  A
C251        C746   1.505       .  S
O252       Cr261   1.982       .  S
O252        C260   1.265       .  A
O253       Cr261   2.034       .  S
O253        C254   1.270       .  A
C254        O255   1.259       .  A
C254        C802   1.496       .  S
O255       Cr262   1.981       .  S
O256       Cr262   2.027   1_556  S
O256        C257   1.270       .  A
C257        O258   1.256       .  A
C257        C830   1.482       .  S
O258       Cr263   1.956       .  S
O259       Cr263   2.016       .  S
O259        C260   1.270   1_556  A
C260        C858   1.496       .  S
Cr261       O264   1.769       .  S
Cr262       O264   1.763       .  S
Cr263       O264   1.765   1_556  S
O265       Cr283   1.984       .  S
O265        C273   1.264       .  A
O266       Cr283   2.037       .  S
O266        C267   1.272       .  A
C267        O268   1.260       .  A
C267        C690   1.493       .  S
O268       Cr284   1.973       .  S
O269       Cr284   2.044       .  S
O269        C270   1.274       .  A
C270        O271   1.253       .  A
C270        C709   1.475       .  S
O271       Cr285   1.946       .  S
O272       Cr285   2.011       .  S
O272        C273   1.266       .  A
C273       C1129   1.490       .  S
O274       Cr283   2.045       .  S
O274        C282   1.274       .  A
O275       Cr283   1.973       .  S
O275        C276   1.263       .  A
C276        O277   1.270       .  A
C276        C634   1.492       .  S
O277       Cr284   2.017       .  S
O278       Cr284   1.969       .  S
O278        C279   1.253       .  A
C279        O280   1.267       .  A
C279        C653   1.478       .  S
O280       Cr285   2.026       .  S
O281       Cr285   1.956       .  S
O281        C282   1.257       .  A
C282        C606   1.484       .  S
Cr283       O286   1.767       .  S
Cr284       O286   1.764       .  S
Cr285       O286   1.760       .  S
O287       Cr305   2.036       .  S
O287        C295   1.271       .  A
O288       Cr305   1.980       .  S
O288        C289   1.264       .  A
C289        O290   1.267       .  A
C289       C1017   1.490       .  S
O290       Cr306   2.006       .  S
O291       Cr306   1.957       .  S
O291        C292   1.254   1_554  A
C292        O293   1.266       .  A
C292       C1166   1.487       .  S
O293       Cr307   2.026       .  S
O294       Cr307   1.969   1_554  S
O294        C295   1.258       .  A
C295       C1054   1.485   1_455  S
O296       Cr305   2.001       .  S
O296        C304   1.269       .  A
O297       Cr305   2.038       .  S
O297        C298   1.272       .  A
C298        O299   1.260       .  A
C298        C681   1.499       .  S
O299       Cr306   1.977       .  S
O300       Cr306   2.026       .  S
O300        C301   1.270   1_554  A
C301        O302   1.257       .  A
C301        C718   1.481       .  S
O302       Cr307   1.956       .  S
O303       Cr307   2.015   1_554  S
O303        C304   1.271       .  A
C304        C578   1.501       .  S
Cr305       O308   1.768       .  S
Cr306       O308   1.763       .  S
Cr307       O308   1.761   1_556  S
O309       Cr327   1.986       .  S
O309        C317   1.263       .  A
O310       Cr327   2.032       .  S
O310        C311   1.271       .  A
C311        O312   1.260       .  A
C311        C513   1.492       .  S
O312       Cr328   1.973       .  S
O313       Cr328   2.046       .  S
O313        C314   1.273       .  A
C314        O315   1.252       .  A
C314        C541   1.483       .  S
O315       Cr329   1.946       .  S
O316       Cr329   2.004       .  S
O316        C317   1.266       .  A
C317        C905   1.477       .  S
O318       Cr327   2.043       .  S
O318        C326   1.274       .  A
O319       Cr327   1.969       .  S
O319        C320   1.264       .  A
C320        O321   1.271       .  A
C320        C485   1.492       .  S
O321       Cr328   2.021       .  S
O322       Cr328   1.961       .  S
O322        C323   1.254       .  A
C323        O324   1.268       .  A
C323        C625   1.489       .  S
O324       Cr329   2.034       .  S
O325       Cr329   1.960       .  S
O325        C326   1.259       .  A
C326        C466   1.492       .  S
Cr327       O330   1.769       .  S
Cr328       O330   1.765       .  S
Cr329       O330   1.758       .  S
O331       Cr349   2.028       .  S
O331        C339   1.269       .  A
O332       Cr349   1.969       .  S
O332        C333   1.265       .  A
C333        O334   1.268       .  A
C333       C1493   1.485       .  S
O334       Cr350   2.013       .  S
O335       Cr350   1.963       .  S
O335        C336   1.255       .  A
C336        O337   1.269       .  A
C336        C933   1.488       .  S
O337       Cr351   2.018       .  S
O338       Cr351   1.975       .  S
O338        C339   1.260       .  A
C339       C1530   1.484       .  S
O340       Cr349   1.987       .  S
O340        C348   1.266       .  A
O341       Cr349   2.022       .  S
O341        C342   1.267       .  A
C342        O343   1.260       .  A
C342        C522   1.492       .  S
O343       Cr350   1.979       .  S
O344       Cr350   2.025       .  S
O344        C345   1.268       .  A
C345        O346   1.256       .  A
C345        C550   1.480       .  S
O346       Cr351   1.960       .  S
O347       Cr351   2.007       .  S
O347        C348   1.267       .  A
C348        C597   1.493       .  S
Cr349       O352   1.769       .  S
Cr350       O352   1.769       .  S
Cr351       O352   1.765       .  S
O353       Cr371   2.002       .  S
O353        C361   1.261       .  A
O354       Cr371   2.030       .  S
O354        C355   1.279       .  A
C355        O356   1.269       .  A
C355       C1717   1.487       .  S
O356       Cr372   1.979       .  S
O357       Cr372   1.961       .  S
O357        C358   1.246       .  A
C358        O359   1.261       .  A
C358        C765   1.478       .  S
O359       Cr373   2.021       .  S
O360       Cr373   1.975       .  S
O360        C361   1.255       .  A
C361       C1810   1.483       .  S
O362       Cr371   2.017       .  S
O362        C370   1.273       .  A
O363       Cr371   2.028       .  S
O363        C364   1.261       .  A
C364        O365   1.251       .  A
C364        C401   1.506       .  S
O365       Cr372   1.985       .  S
O366       Cr372   2.002       .  S
O366        C367   1.275       .  A
C367        O368   1.269       .  A
C367        C438   1.467       .  S
O368       Cr373   1.992       .  S
O369       Cr373   1.972       .  S
O369        C370   1.262       .  A
C370        C457   1.496       .  S
Cr371       O374   1.782       .  S
Cr372       O374   1.774       .  S
Cr373       O374   1.784       .  S
O375       Cr393   2.005       .  S
O375        C383   1.268       .  A
O376       Cr393   2.040       .  S
O376        C377   1.273       .  A
C377        O378   1.265       .  A
C377        C410   1.508       .  S
O378       Cr394   1.990       .  S
O379       Cr394   2.054       .  S
O379        C380   1.273       .  A
C380        O381   1.252       .  A
C380        C429   1.487   1_556  S
O381       Cr395   1.946       .  S
O382       Cr395   2.012       .  S
O382        C383   1.268       .  A
C383        C737   1.500       .  S
O384       Cr393   2.051       .  S
O384        C392   1.275       .  A
O385       Cr393   1.979       .  S
O385        C386   1.265       .  A
C386        O387   1.271       .  A
C386        C662   1.488       .  S
O387       Cr394   2.016       .  S
O388       Cr394   1.967       .  S
O388        C389   1.256       .  A
C389        O390   1.267       .  A
C389        C494   1.489       .  S
O390       Cr395   2.027       .  S
O391       Cr395   1.967       .  S
O391        C392   1.257       .  A
C392        C569   1.490       .  S
Cr393       O396   1.767       .  S
Cr394       O396   1.771       .  S
Cr395       O396   1.758       .  S
C397        C398   1.400       .  A
C397        C402   1.405       .  A
C397        H407   1.084       .  S
C398        C403   1.505       .  S
C398        C399   1.416       .  A
C399        C400   1.416       .  A
C399        N404   1.428       .  S
C400        C401   1.408       .  A
C400        H405   1.084       .  S
C401        C402   1.421       .  A
C402        N406   1.430       .  S
C403        C408   1.413       .  A
C403        C412   1.404       .  A
N404        O419   1.262       .  A
N404        O420   1.262       .  A
N406        O417   1.262       .  A
N406        O418   1.262       .  A
C408        C409   1.411       .  A
C408        N413   1.428       .  S
C409        C410   1.409       .  A
C409        H414   1.084       .  S
C410        C411   1.420       .  A
C411        C412   1.411       .  A
C411        N415   1.429       .  S
C412        H416   1.084       .  S
N413        O423   1.262       .  A
N413        O424   1.262       .  A
N415        O421   1.262       .  A
N415        O422   1.262       .  A
C425        C426   1.409       .  A
C425        C430   1.411       .  A
C425        H435   1.083       .  S
C426        C431   1.485       .  S
C426        C427   1.404       .  A
C427        C428   1.391       .  A
C427        N432   1.430       .  S
C428        C429   1.409       .  A
C428        H433   1.084       .  S
C429        C430   1.411       .  A
C430        N434   1.428       .  S
C431        C436   1.410       .  A
C431        C440   1.402       .  A
N432        O447   1.262       .  A
N432        O448   1.262       .  A
N434        O445   1.262       .  A
N434        O446   1.262   1_554  A
C436        C437   1.407       .  A
C436        N441   1.428       .  S
C437        C438   1.405       .  A
C437        H442   1.084       .  S
C438        C439   1.409       .  A
C439        C440   1.395       .  A
C439        N443   1.431       .  S
C440        H444   1.084       .  S
N441        O451   1.262       .  A
N441        O452   1.262       .  A
N443        O449   1.262       .  A
N443        O450   1.261       .  A
C453        C454   1.398       .  A
C453        C458   1.401       .  A
C453        H463   1.085       .  S
C454        C459   1.489       .  S
C454        C455   1.413       .  A
C455        C456   1.407       .  A
C455        N460   1.432       .  S
C456        C457   1.407       .  A
C456        H461   1.084       .  S
C457        C458   1.420       .  A
C458        N462   1.429       .  S
C459        C464   1.410       .  A
C459        C468   1.406       .  A
N460        O475   1.262       .  A
N460        O476   1.262       .  A
N462        O473   1.262       .  A
N462        O474   1.262       .  A
C464        C465   1.399       .  A
C464        N469   1.432       .  S
C465        C466   1.406       .  A
C465        H470   1.084       .  S
C466        C467   1.416       .  A
C467        C468   1.408       .  A
C467        N471   1.429       .  S
C468        H472   1.084       .  S
N469        O479   1.262       .  A
N469        O480   1.262       .  A
N471        O477   1.262       .  A
N471        O478   1.262       .  A
C481        C482   1.402       .  A
C481        C486   1.406       .  A
C481        H491   1.084       .  S
C482        C487   1.481       .  S
C482        C483   1.407       .  A
C483        C484   1.396       .  A
C483        N488   1.430       .  S
C484        C485   1.408       .  A
C484        H489   1.084       .  S
C485        C486   1.419       .  A
C486        N490   1.429       .  S
C487        C492   1.406   1_554  A
C487        C496   1.402       .  A
N488        O503   1.262       .  A
N488        O504   1.262       .  A
N490        O501   1.262   1_545  A
N490        O502   1.262   1_545  A
C492        C493   1.400       .  A
C492        N497   1.429       .  S
C493        C494   1.410       .  A
C493        H498   1.085       .  S
C494        C495   1.415   1_556  A
C495        C496   1.402       .  A
C495        N499   1.428       .  S
C496        H500   1.084       .  S
N497        O507   1.262       .  A
N497        O508   1.262       .  A
N499        O505   1.262       .  A
N499        O506   1.262       .  A
C509        C510   1.407   1_545  A
C509        C514   1.405       .  A
C509        H519   1.084   1_554  S
C510        C515   1.497   1_554  S
C510        C511   1.412       .  A
C511        C512   1.405       .  A
C511        N516   1.430       .  S
C512        C513   1.408   1_565  A
C512        H517   1.084       .  S
C513        C514   1.411       .  A
C514        N518   1.428       .  S
C515        C520   1.413       .  A
C515        C524   1.405       .  A
N516        O531   1.262       .  A
N516        O532   1.262       .  A
N518        O529   1.262       .  A
N518        O530   1.261       .  A
C520        C521   1.404       .  A
C520        N525   1.430   1_565  S
C521        C522   1.406       .  A
C521        H526   1.084       .  S
C522        C523   1.417       .  A
C523        C524   1.405       .  A
C523        N527   1.429       .  S
C524        H528   1.084   1_556  S
N525        O535   1.262       .  A
N525        O536   1.262   1_545  A
N527        O533   1.261       .  A
N527        O534   1.262       .  A
C537        C538   1.410   1_565  A
C537        C542   1.406       .  A
C537        H547   1.083       .  S
C538        C543   1.490   1_545  S
C538        C539   1.409       .  A
C539        C540   1.394       .  A
C539        N544   1.431       .  S
C540        C541   1.408       .  A
C540        H545   1.084       .  S
C541        C542   1.407   1_545  A
C542        N546   1.428       .  S
C543        C548   1.411       .  A
C543        C552   1.406   1_565  A
N544        O559   1.262       .  A
N544        O560   1.262       .  A
N546        O557   1.262       .  A
N546        O558   1.262       .  A
C548        C549   1.399       .  A
C548        N553   1.430       .  S
C549        C550   1.405       .  A
C549        H554   1.085       .  S
C550        C551   1.412   1_565  A
C551        C552   1.401       .  A
C551        N555   1.429       .  S
C552        H556   1.084       .  S
N553        O563   1.262       .  A
N553        O564   1.262       .  A
N555        O561   1.261       .  A
N555        O562   1.262       .  A
C565        C566   1.402       .  A
C565        C570   1.402       .  A
C565        H575   1.084       .  S
C566        C571   1.495       .  S
C566        C567   1.415       .  A
C567        C568   1.411       .  A
C567        N572   1.430       .  S
C568        C569   1.406   1_565  A
C568        H573   1.084   1_565  S
C569        C570   1.413   1_545  A
C570        N574   1.429       .  S
C571        C576   1.409       .  A
C571        C580   1.406   1_556  A
N572        O587   1.262       .  A
N572        O588   1.262       .  A
N574        O585   1.262       .  A
N574        O586   1.262       .  A
C576        C577   1.404       .  A
C576        N581   1.430       .  S
C577        C578   1.411   1_556  A
C577        H582   1.084       .  S
C578        C579   1.416       .  A
C579        C580   1.408       .  A
C579        N583   1.428       .  S
C580        H584   1.084       .  S
N581        O591   1.262       .  A
N581        O592   1.262       .  A
N583        O589   1.262       .  A
N583        O590   1.262       .  A
C593        C594   1.399       .  A
C593        C598   1.401       .  A
C593        H603   1.084       .  S
C594        C599   1.486       .  S
C594        C595   1.412       .  A
C595        C596   1.403       .  A
C595        N600   1.432       .  S
C596        C597   1.407       .  A
C596        H601   1.084       .  S
C597        C598   1.419       .  A
C598        N602   1.429       .  S
C599        C604   1.410       .  A
C599        C608   1.405       .  A
N600        O615   1.262       .  A
N600        O616   1.262       .  A
N602        O613   1.262       .  A
N602        O614   1.262       .  A
C604        C605   1.399       .  A
C604        N609   1.432       .  S
C605        C606   1.406       .  A
C605        H610   1.084       .  S
C606        C607   1.412       .  A
C607        C608   1.406       .  A
C607        N611   1.428       .  S
C608        H612   1.084       .  S
N609        O619   1.262       .  A
N609        O620   1.262       .  A
N611        O617   1.262       .  A
N611        O618   1.261       .  A
C621        C622   1.406       .  A
C621        C626   1.406   1_565  A
C621        H631   1.084       .  S
C622        C627   1.489       .  S
C622        C623   1.408       .  A
C623        C624   1.398   1_565  A
C623        N628   1.429       .  S
C624        C625   1.408       .  A
C624        H629   1.084       .  S
C625        C626   1.414       .  A
C626        N630   1.429       .  S
C627        C632   1.409       .  A
C627        C636   1.405       .  A
N628        O643   1.262       .  A
N628        O644   1.262       .  A
N630        O641   1.262       .  A
N630        O642   1.262       .  A
C632        C633   1.399       .  A
C632        N637   1.430       .  S
C633        C634   1.408       .  A
C633        H638   1.084       .  S
C634        C635   1.416       .  A
C635        C636   1.405       .  A
C635        N639   1.430       .  S
C636        H640   1.083       .  S
N637        O647   1.262       .  A
N637        O648   1.262       .  A
N639        O645   1.262       .  A
N639        O646   1.262       .  A
C649        C650   1.403       .  A
C649        C654   1.403       .  A
C649        H659   1.084       .  S
C650        C655   1.483       .  S
C650        C651   1.409       .  A
C651        C652   1.400       .  A
C651        N656   1.429       .  S
C652        C653   1.403       .  A
C652        H657   1.084       .  S
C653        C654   1.413       .  A
C654        N658   1.430       .  S
C655        C660   1.407   1_565  A
C655        C664   1.402       .  A
N656        O671   1.262       .  A
N656        O672   1.262       .  A
N658        O669   1.262       .  A
N658        O670   1.262       .  A
C660        C661   1.403       .  A
C660        N665   1.429       .  S
C661        C662   1.409       .  A
C661        H666   1.084       .  S
C662        C663   1.414       .  A
C663        C664   1.400   1_545  A
C663        N667   1.429       .  S
C664        H668   1.084       .  S
N665        O675   1.262       .  A
N665        O676   1.262   1_545  A
N667        O673   1.262       .  A
N667        O674   1.262   1_545  A
C677        C678   1.405       .  A
C677        C682   1.408       .  A
C677        H687   1.084       .  S
C678        C683   1.498       .  S
C678        C679   1.410       .  A
C679        C680   1.406       .  A
C679        N684   1.428       .  S
C680        C681   1.408       .  A
C680        H685   1.084       .  S
C681        C682   1.418       .  A
C682        N686   1.429       .  S
C683        C688   1.410       .  A
C683        C692   1.408       .  A
N684        O699   1.262       .  A
N684        O700   1.262       .  A
N686        O697   1.262       .  A
N686        O698   1.262       .  A
C688        C689   1.404       .  A
C688        N693   1.429       .  S
C689        C690   1.407       .  A
C689        H694   1.084       .  S
C690        C691   1.412       .  A
C691        C692   1.410       .  A
C691        N695   1.429       .  S
C692        H696   1.084       .  S
N693        O703   1.262       .  A
N693        O704   1.262       .  A
N695        O701   1.262       .  A
N695        O702   1.262       .  A
C705        C706   1.409       .  A
C705        C710   1.406       .  A
C705        H715   1.084       .  S
C706        C711   1.483       .  S
C706        C707   1.406       .  A
C707        C708   1.393       .  A
C707        N712   1.430       .  S
C708        C709   1.406       .  A
C708        H713   1.085       .  S
C709        C710   1.406       .  A
C710        N714   1.429       .  S
C711        C716   1.406       .  A
C711        C720   1.405       .  A
N712        O727   1.262       .  A
N712        O728   1.262       .  A
N714        O725   1.262       .  A
N714        O726   1.262       .  A
C716        C717   1.397       .  A
C716        N721   1.429       .  S
C717        C718   1.407       .  A
C717        H722   1.084       .  S
C718        C719   1.414       .  A
C719        C720   1.401       .  A
C719        N723   1.430       .  S
C720        H724   1.084       .  S
N721        O731   1.262       .  A
N721        O732   1.262       .  A
N723        O729   1.261       .  A
N723        O730   1.262       .  A
C733        C734   1.408       .  A
C733        C738   1.409       .  A
C733        H743   1.084       .  S
C734        C739   1.502       .  S
C734        C735   1.411       .  A
C735        C736   1.407       .  A
C735        N740   1.429   1_556  S
C736        C737   1.410       .  A
C736        H741   1.084   1_556  S
C737        C738   1.413       .  A
C738        N742   1.428       .  S
C739        C744   1.410       .  A
C739        C748   1.408   1_556  A
N740        O755   1.262       .  A
N740        O756   1.262       .  A
N742        O753   1.262       .  A
N742        O754   1.262       .  A
C744        C745   1.404       .  A
C744        N749   1.429       .  S
C745        C746   1.410   1_556  A
C745        H750   1.084       .  S
C746        C747   1.417       .  A
C747        C748   1.412       .  A
C747        N751   1.428       .  S
C748        H752   1.084       .  S
N749        O759   1.262       .  A
N749        O760   1.262       .  A
N751        O757   1.262       .  A
N751        O758   1.262       .  A
C761        C762   1.394       .  A
C761        C766   1.390       .  A
C761        H771   1.085       .  S
C762        C767   1.477       .  S
C762        C763   1.410       .  A
C763        C764   1.408       .  A
C763        N768   1.428       .  S
C764        C765   1.404       .  A
C764        H769   1.084       .  S
C765        C766   1.419       .  A
C766        N770   1.432       .  S
C767        C772   1.408       .  A
C767        C776   1.399       .  A
N768        O783   1.262       .  A
N768        O784   1.262       .  A
N770        O781   1.261       .  A
N770        O782   1.262       .  A
C772        C773   1.395       .  A
C772        N777   1.430       .  S
C773        C774   1.406       .  A
C773        H778   1.084       .  S
C774        C775   1.419       .  A
C775        C776   1.404       .  A
C775        N779   1.429       .  S
C776        H780   1.084       .  S
N777        O787   1.262       .  A
N777        O788   1.262       .  A
N779        O785   1.262       .  A
N779        O786   1.262       .  A
C789        C790   1.409       .  A
C789        C794   1.409       .  A
C789        H799   1.084       .  S
C790        C795   1.507       .  S
C790        C791   1.415       .  A
C791        C792   1.405       .  A
C791        N796   1.430       .  S
C792        C793   1.408       .  A
C792        H797   1.085       .  S
C793        C794   1.415       .  A
C794        N798   1.429       .  S
C795        C800   1.416       .  A
C795        C804   1.407       .  A
N796        O811   1.262       .  A
N796        O812   1.262       .  A
N798        O809   1.262       .  A
N798        O810   1.262       .  A
C800        C801   1.408       .  A
C800        N805   1.430       .  S
C801        C802   1.406       .  A
C801        H806   1.085       .  S
C802        C803   1.415       .  A
C803        C804   1.406       .  A
C803        N807   1.429       .  S
C804        H808   1.084       .  S
N805        O815   1.262       .  A
N805        O816   1.262       .  A
N807        O813   1.262       .  A
N807        O814   1.262       .  A
C817        C818   1.410       .  A
C817        C822   1.406       .  A
C817        H827   1.084       .  S
C818        C823   1.490       .  S
C818        C819   1.408       .  A
C819        C820   1.395       .  A
C819        N824   1.431       .  S
C820        C821   1.408       .  A
C820        H825   1.085       .  S
C821        C822   1.408       .  A
C822        N826   1.428       .  S
C823        C828   1.410       .  A
C823        C832   1.407       .  A
N824        O839   1.262       .  A
N824        O840   1.262       .  A
N826        O837   1.262       .  A
N826        O838   1.262       .  A
C828        C829   1.399       .  A
C828        N833   1.430       .  S
C829        C830   1.407       .  A
C829        H834   1.085       .  S
C830        C831   1.412       .  A
C831        C832   1.402       .  A
C831        N835   1.429       .  S
C832        H836   1.084       .  S
N833        O843   1.262       .  A
N833        O844   1.262       .  A
N835        O841   1.262       .  A
N835        O842   1.262       .  A
C845        C846   1.406       .  A
C845        C850   1.405   1_455  A
C845        H855   1.084       .  S
C846        C851   1.490       .  S
C846        C847   1.412       .  A
C847        C848   1.401       .  A
C847        N852   1.433       .  S
C848        C849   1.405   1_455  A
C848        H853   1.085       .  S
C849        C850   1.410       .  A
C850        N854   1.428       .  S
C851        C856   1.413   1_556  A
C851        C860   1.401       .  A
N852        O867   1.262       .  A
N852        O868   1.263   1_556  A
N854        O865   1.262       .  A
N854        O866   1.262       .  A
C856        C857   1.404       .  A
C856        N861   1.432       .  S
C857        C858   1.408       .  A
C857        H862   1.084       .  S
C858        C859   1.417   1_554  A
C859        C860   1.403       .  A
C859        N863   1.428       .  S
C860        H864   1.084       .  S
N861        O871   1.262       .  A
N861        O872   1.262       .  A
N863        O869   1.262       .  A
N863        O870   1.262       .  A
C873        C874   1.401       .  A
C873        C878   1.398   1_455  A
C873        H883   1.084       .  S
C874        C879   1.487       .  S
C874        C875   1.409   1_455  A
C875        C876   1.404       .  A
C875        N880   1.428       .  S
C876        C877   1.409       .  A
C876        H881   1.084       .  S
C877        C878   1.419       .  A
C878        N882   1.430       .  S
C879        C884   1.412       .  A
C879        C888   1.403       .  A
N880        O895   1.262       .  A
N880        O896   1.262       .  A
N882        O893   1.262   1_655  A
N882        O894   1.262       .  A
C884        C885   1.400       .  A
C884        N889   1.430       .  S
C885        C886   1.403       .  A
C885        H890   1.084       .  S
C886        C887   1.416       .  A
C887        C888   1.402       .  A
C887        N891   1.430       .  S
C888        H892   1.084       .  S
N889        O899   1.262       .  A
N889        O900   1.262       .  A
N891        O897   1.262       .  A
N891        O898   1.262       .  A
C901        C902   1.406       .  A
C901        C906   1.404       .  A
C901        H911   1.084       .  S
C902        C907   1.482       .  S
C902        C903   1.407       .  A
C903        C904   1.395       .  A
C903        N908   1.430       .  S
C904        C905   1.404       .  A
C904        H909   1.084       .  S
C905        C906   1.411       .  A
C906        N910   1.430       .  S
C907        C912   1.406       .  A
C907        C916   1.404       .  A
N908        O923   1.262       .  A
N908        O924   1.262       .  A
N910        O921   1.262       .  A
N910        O922   1.262       .  A
C912        C913   1.397       .  A
C912        N917   1.429       .  S
C913        C914   1.409       .  A
C913        H918   1.084       .  S
C914        C915   1.415       .  A
C915        C916   1.401       .  A
C915        N919   1.429       .  S
C916        H920   1.084       .  S
N917        O927   1.262       .  A
N917        O928   1.262       .  A
N919        O925   1.262       .  A
N919        O926   1.262       .  A
C929        C930   1.398       .  A
C929        C934   1.398       .  A
C929        H939   1.085       .  S
C930        C935   1.480       .  S
C930        C931   1.410       .  A
C931        C932   1.402   1_545  A
C931        N936   1.431       .  S
C932        C933   1.407       .  A
C932        H937   1.084       .  S
C933        C934   1.419   1_565  A
C934        N938   1.429       .  S
C935        C940   1.408       .  A
C935        C944   1.401       .  A
N936        O951   1.262       .  A
N936        O952   1.262       .  A
N938        O949   1.262   1_545  A
N938        O950   1.262       .  A
C940        C941   1.398       .  A
C940        N945   1.431       .  S
C941        C942   1.409       .  A
C941        H946   1.084       .  S
C942        C943   1.416       .  A
C943        C944   1.403       .  A
C943        N947   1.428       .  S
C944        H948   1.084       .  S
N945        O955   1.262       .  A
N945        O956   1.262       .  A
N947        O953   1.262       .  A
N947        O954   1.262       .  A
C957        C958   1.403       .  A
C957        C962   1.405       .  A
C957        H967   1.084       .  S
C958        C963   1.493       .  S
C958        C959   1.410       .  A
C959        C960   1.405       .  A
C959        N964   1.429       .  S
C960        C961   1.406       .  A
C960        H965   1.084       .  S
C961        C962   1.417       .  A
C962        N966   1.430       .  S
C963        C968   1.408       .  A
C963        C972   1.405       .  A
N964        O979   1.262       .  A
N964        O980   1.262       .  A
N966        O977   1.262       .  A
N966        O978   1.262       .  A
C968        C969   1.404       .  A
C968        N973   1.429       .  S
C969        C970   1.410       .  A
C969        H974   1.084       .  S
C970        C971   1.412       .  A
C971        C972   1.406       .  A
C971        N975   1.427       .  S
C972        H976   1.084       .  S
N973        O983   1.262       .  A
N973        O984   1.262       .  A
N975        O981   1.261       .  A
N975        O982   1.262       .  A
C985        C986   1.412       .  A
C985        C990   1.409       .  A
C985        H995   1.084       .  S
C986        C991   1.485       .  S
C986        C987   1.403       .  A
C987        C988   1.391       .  A
C987        N992   1.430       .  S
C988        C989   1.408       .  A
C988        H993   1.085       .  S
C989        C990   1.407       .  A
C990        N994   1.428   1_554  S
C991        C996   1.404       .  A
C991       C1000   1.407       .  A
N992       O1007   1.262       .  A
N992       O1008   1.262       .  A
N994       O1005   1.262       .  A
N994       O1006   1.262       .  A
C996        C997   1.397       .  A
C996       N1001   1.428       .  S
C997        C998   1.408       .  A
C997       H1002   1.085       .  S
C998        C999   1.410       .  A
C999       C1000   1.403       .  A
C999       N1003   1.429       .  S
C1000      H1004   1.085       .  S
N1001      O1011   1.261       .  A
N1001      O1012   1.262       .  A
N1003      O1009   1.262       .  A
N1003      O1010   1.262       .  A
C1013      C1014   1.400   1_455  A
C1013      C1018   1.400       .  A
C1013      H1023   1.084       .  S
C1014      C1019   1.480       .  S
C1014      C1015   1.411       .  A
C1015      C1016   1.401       .  A
C1015      N1020   1.434       .  S
C1016      C1017   1.407   1_655  A
C1016      H1021   1.084       .  S
C1017      C1018   1.418       .  A
C1018      N1022   1.430       .  S
C1019      C1024   1.411       .  A
C1019      C1028   1.400       .  A
N1020      O1035   1.262       .  A
N1020      O1036   1.262       .  A
N1022      O1033   1.262       .  A
N1022      O1034   1.262       .  A
C1024      C1025   1.401       .  A
C1024      N1029   1.430       .  S
C1025      C1026   1.405       .  A
C1025      H1030   1.084       .  S
C1026      C1027   1.413       .  A
C1027      C1028   1.396       .  A
C1027      N1031   1.430       .  S
C1028      H1032   1.085       .  S
N1029      O1039   1.262       .  A
N1029      O1040   1.262       .  A
N1031      O1037   1.262       .  A
N1031      O1038   1.262       .  A
C1041      C1042   1.408       .  A
C1041      C1046   1.406       .  A
C1041      H1051   1.084       .  S
C1042      C1047   1.496       .  S
C1042      C1043   1.411       .  A
C1043      C1044   1.400       .  A
C1043      N1048   1.429   1_556  S
C1044      C1045   1.408       .  A
C1044      H1049   1.084       .  S
C1045      C1046   1.414       .  A
C1046      N1050   1.429       .  S
C1047      C1052   1.413       .  A
C1047      C1056   1.407   1_556  A
N1048      O1063   1.262       .  A
N1048      O1064   1.262       .  A
N1050      O1061   1.262       .  A
N1050      O1062   1.262       .  A
C1052      C1053   1.402       .  A
C1052      N1057   1.429       .  S
C1053      C1054   1.405   1_556  A
C1053      H1058   1.085       .  S
C1054      C1055   1.411       .  A
C1055      C1056   1.405       .  A
C1055      N1059   1.429   1_655  S
C1056      H1060   1.084       .  S
N1057      O1067   1.262       .  A
N1057      O1068   1.262       .  A
N1059      O1065   1.262       .  A
N1059      O1066   1.262       .  A
C1069      C1070   1.404       .  A
C1069      C1074   1.405       .  A
C1069      H1079   1.084       .  S
C1070      C1075   1.497       .  S
C1070      C1071   1.415       .  A
C1071      C1072   1.405       .  A
C1071      N1076   1.432       .  S
C1072      C1073   1.406       .  A
C1072      H1077   1.084       .  S
C1073      C1074   1.417       .  A
C1074      N1078   1.429       .  S
C1075      C1080   1.416       .  A
C1075      C1084   1.405       .  A
N1076      O1091   1.262       .  A
N1076      O1092   1.262       .  A
N1078      O1089   1.262       .  A
N1078      O1090   1.262       .  A
C1080      C1081   1.406       .  A
C1080      N1085   1.433       .  S
C1081      C1082   1.404       .  A
C1081      H1086   1.084       .  S
C1082      C1083   1.414       .  A
C1083      C1084   1.404       .  A
C1083      N1087   1.429       .  S
C1084      H1088   1.084       .  S
N1085      O1095   1.262       .  A
N1085      O1096   1.262       .  A
N1087      O1093   1.262       .  A
N1087      O1094   1.262       .  A
C1097      C1098   1.406       .  A
C1097      C1102   1.406       .  A
C1097      H1107   1.084       .  S
C1098      C1103   1.480       .  S
C1098      C1099   1.405       .  A
C1099      C1100   1.397       .  A
C1099      N1104   1.429       .  S
C1100      C1101   1.407       .  A
C1100      H1105   1.085       .  S
C1101      C1102   1.407       .  A
C1102      N1106   1.427       .  S
C1103      C1108   1.410       .  A
C1103      C1112   1.401       .  A
N1104      O1119   1.262       .  A
N1104      O1120   1.262       .  A
N1106      O1117   1.262       .  A
N1106      O1118   1.262       .  A
C1108      C1109   1.401       .  A
C1108      N1113   1.430       .  S
C1109      C1110   1.404   1_554  A
C1109      H1114   1.085       .  S
C1110      C1111   1.414   1_556  A
C1111      C1112   1.403       .  A
C1111      N1115   1.429   1_554  S
C1112      H1116   1.084       .  S
N1113      O1123   1.262       .  A
N1113      O1124   1.262       .  A
N1115      O1121   1.262       .  A
N1115      O1122   1.261   1_556  A
C1125      C1126   1.399       .  A
C1125      C1130   1.402       .  A
C1125      H1135   1.084       .  S
C1126      C1131   1.482       .  S
C1126      C1127   1.409       .  A
C1127      C1128   1.402       .  A
C1127      N1132   1.430       .  S
C1128      C1129   1.407       .  A
C1128      H1133   1.084       .  S
C1129      C1130   1.417       .  A
C1130      N1134   1.428       .  S
C1131      C1136   1.405       .  A
C1131      C1140   1.404       .  A
N1132      O1147   1.262       .  A
N1132      O1148   1.262       .  A
N1134      O1145   1.261       .  A
N1134      O1146   1.262       .  A
C1136      C1137   1.399       .  A
C1136      N1141   1.429       .  S
C1137      C1138   1.408       .  A
C1137      H1142   1.084       .  S
C1138      C1139   1.413       .  A
C1139      C1140   1.406       .  A
C1139      N1143   1.429       .  S
C1140      H1144   1.084       .  S
N1141      O1151   1.262       .  A
N1141      O1152   1.262       .  A
N1143      O1149   1.262       .  A
N1143      O1150   1.262       .  A
C1153      C1154   1.404       .  A
C1153      C1158   1.403       .  A
C1153      H1163   1.085       .  S
C1154      C1159   1.479       .  S
C1154      C1155   1.403       .  A
C1155      C1156   1.395       .  A
C1155      N1160   1.429       .  S
C1156      C1157   1.410       .  A
C1156      H1161   1.084       .  S
C1157      C1158   1.415       .  A
C1158      N1162   1.429       .  S
C1159      C1164   1.404       .  A
C1159      C1168   1.405       .  A
N1160      O1175   1.262       .  A
N1160      O1176   1.262   1_455  A
N1162      O1173   1.262       .  A
N1162      O1174   1.261       .  A
C1164      C1165   1.394       .  A
C1164      N1169   1.429   1_556  S
C1165      C1166   1.408       .  A
C1165      H1170   1.088   1_556  S
C1166      C1167   1.415       .  A
C1167      C1168   1.404       .  A
C1167      N1171   1.429       .  S
C1168      H1172   1.087       .  S
N1169      O1179   1.262       .  A
N1169      O1180   1.262       .  A
N1171      O1177   1.262       .  A
N1171      O1178   1.262       .  A
C1181      C1182   1.402       .  A
C1181      C1186   1.402       .  A
C1181      H1191   1.084       .  S
C1182      C1187   1.491       .  S
C1182      C1183   1.416       .  A
C1183      C1184   1.407       .  A
C1183      N1188   1.430       .  S
C1184      C1185   1.402       .  A
C1184      H1189   1.084       .  S
C1185      C1186   1.412       .  A
C1186      N1190   1.429       .  S
C1187      C1192   1.411       .  A
C1187      C1196   1.406       .  A
N1188      O1203   1.262       .  A
N1188      O1204   1.262       .  A
N1190      O1201   1.262       .  A
N1190      O1202   1.262       .  A
C1192      C1193   1.401       .  A
C1192      N1197   1.429       .  S
C1193      C1194   1.403       .  A
C1193      H1198   1.085       .  S
C1194      C1195   1.411       .  A
C1195      C1196   1.407       .  A
C1195      N1199   1.428       .  S
C1196      H1200   1.084       .  S
N1197      O1207   1.260       .  A
N1197      O1208   1.262       .  A
N1199      O1205   1.262       .  A
N1199      O1206   1.262       .  A
C1209      C1210   1.406       .  A
C1209      C1214   1.407   1_655  A
C1209      H1219   1.084       .  S
C1210      C1215   1.481       .  S
C1210      C1211   1.405       .  A
C1211      C1212   1.395       .  A
C1211      N1216   1.429       .  S
C1212      C1213   1.405   1_655  A
C1212      H1217   1.085       .  S
C1213      C1214   1.409       .  A
C1214      N1218   1.428       .  S
C1215      C1220   1.404       .  A
C1215      C1224   1.400       .  A
N1216      O1231   1.262       .  A
N1216      O1232   1.262       .  A
N1218      O1229   1.262       .  A
N1218      O1230   1.262       .  A
C1220      C1221   1.405       .  A
C1220      N1225   1.429       .  S
C1221      C1222   1.412       .  A
C1221      H1226   1.083       .  S
C1222      C1223   1.418       .  A
C1223      C1224   1.400       .  A
C1223      N1227   1.429       .  S
C1224      H1228   1.084       .  S
N1225      O1235   1.262       .  A
N1225      O1236   1.262       .  A
N1227      O1233   1.262       .  A
N1227      O1234   1.262       .  A
C1237      C1238   1.401       .  A
C1237      C1242   1.401       .  A
C1237      H1247   1.084       .  S
C1238      C1243   1.487       .  S
C1238      C1239   1.410       .  A
C1239      C1240   1.402       .  A
C1239      N1244   1.429       .  S
C1240      C1241   1.406       .  A
C1240      H1245   1.084       .  S
C1241      C1242   1.419       .  A
C1242      N1246   1.429       .  S
C1243      C1248   1.413       .  A
C1243      C1252   1.404       .  A
N1244      O1259   1.262       .  A
N1244      O1260   1.262       .  A
N1246      O1257   1.262       .  A
N1246      O1258   1.262       .  A
C1248      C1249   1.401       .  A
C1248      N1253   1.426       .  S
C1249      C1250   1.396       .  A
C1249      H1254   1.085       .  S
C1250      C1251   1.409       .  A
C1251      C1252   1.401       .  A
C1251      N1255   1.429       .  S
C1252      H1256   1.084       .  S
N1253      O1263   1.262       .  A
N1253      O1264   1.262       .  A
N1255      O1261   1.262       .  A
N1255      O1262   1.262       .  A
C1265      C1266   1.400       .  A
C1265      C1270   1.402       .  A
C1265      H1275   1.084       .  S
C1266      C1271   1.479       .  S
C1266      C1267   1.408       .  A
C1267      C1268   1.396       .  A
C1267      N1272   1.430       .  S
C1268      C1269   1.405       .  A
C1268      H1273   1.084       .  S
C1269      C1270   1.420       .  A
C1270      N1274   1.429       .  S
C1271      C1276   1.406   1_554  A
C1271      C1280   1.402       .  A
N1272      O1287   1.262       .  A
N1272      O1288   1.262       .  A
N1274      O1285   1.262       .  A
N1274      O1286   1.262       .  A
C1276      C1277   1.399       .  A
C1276      N1281   1.429       .  S
C1277      C1278   1.410       .  A
C1277      H1282   1.084       .  S
C1278      C1279   1.413   1_556  A
C1279      C1280   1.400       .  A
C1279      N1283   1.429       .  S
C1280      H1284   1.084       .  S
N1281      O1291   1.262       .  A
N1281      O1292   1.262       .  A
N1283      O1289   1.262       .  A
N1283      O1290   1.262       .  A
C1293      C1294   1.404       .  A
C1293      C1298   1.404       .  A
C1293      H1303   1.084       .  S
C1294      C1299   1.482       .  S
C1294      C1295   1.405       .  A
C1295      C1296   1.401       .  A
C1295      N1300   1.429       .  S
C1296      C1297   1.409       .  A
C1296      H1301   1.084       .  S
C1297      C1298   1.410       .  A
C1298      N1302   1.428       .  S
C1299      C1304   1.404       .  A
C1299      C1308   1.405       .  A
N1300      O1315   1.262       .  A
N1300      O1316   1.262       .  A
N1302      O1313   1.262       .  A
N1302      O1314   1.262       .  A
C1304      C1305   1.397       .  A
C1304      N1309   1.429       .  S
C1305      C1306   1.406       .  A
C1305      H1310   1.085       .  S
C1306      C1307   1.414       .  A
C1307      C1308   1.409       .  A
C1307      N1311   1.429       .  S
C1308      H1312   1.084       .  S
N1309      O1319   1.262       .  A
N1309      O1320   1.262       .  A
N1311      O1317   1.262       .  A
N1311      O1318   1.262       .  A
C1321      C1322   1.405   1_655  A
C1321      C1326   1.403       .  A
C1321      H1331   1.085       .  S
C1322      C1327   1.491       .  S
C1322      C1323   1.411   1_455  A
C1323      C1324   1.398       .  A
C1323      N1328   1.429   1_655  S
C1324      C1325   1.407       .  A
C1324      H1329   1.085       .  S
C1325      C1326   1.414       .  A
C1326      N1330   1.428       .  S
C1327      C1332   1.413       .  A
C1327      C1336   1.406       .  A
N1328      O1343   1.262       .  A
N1328      O1344   1.262       .  A
N1330      O1341   1.262       .  A
N1330      O1342   1.262       .  A
C1332      C1333   1.397       .  A
C1332      N1337   1.430       .  S
C1333      C1334   1.404       .  A
C1333      H1338   1.085       .  S
C1334      C1335   1.414       .  A
C1335      C1336   1.404       .  A
C1335      N1339   1.429       .  S
C1336      H1340   1.084       .  S
N1337      O1347   1.262       .  A
N1337      O1348   1.262       .  A
N1339      O1345   1.262       .  A
N1339      O1346   1.262       .  A
C1349      C1350   1.404       .  A
C1349      C1354   1.410       .  A
C1349      H1359   1.084   1_655  S
C1350      C1355   1.491   1_654  S
C1350      C1351   1.408       .  A
C1351      C1352   1.401       .  A
C1351      N1356   1.430   1_554  S
C1352      C1353   1.409       .  A
C1352      H1357   1.084       .  S
C1353      C1354   1.417       .  A
C1354      N1358   1.428       .  S
C1355      C1360   1.404   1_455  A
C1355      C1364   1.408       .  A
N1356      O1371   1.262       .  A
N1356      O1372   1.262       .  A
N1358      O1369   1.262       .  A
N1358      O1370   1.262   1_655  A
C1360      C1361   1.396   1_655  A
C1360      N1365   1.430       .  S
C1361      C1362   1.412       .  A
C1361      H1366   1.084   1_455  S
C1362      C1363   1.416       .  A
C1363      C1364   1.416       .  A
C1363      N1367   1.428       .  S
C1364      H1368   1.084       .  S
N1365      O1375   1.262   1_556  A
N1365      O1376   1.262       .  A
N1367      O1373   1.262       .  A
N1367      O1374   1.262       .  A
C1377      C1378   1.406       .  A
C1377      C1382   1.403       .  A
C1377      H1387   1.084   1_655  S
C1378      C1383   1.465       .  S
C1378      C1379   1.399       .  A
C1379      C1380   1.388       .  A
C1379      N1384   1.429       .  S
C1380      C1381   1.406       .  A
C1380      H1385   1.085       .  S
C1381      C1382   1.405       .  A
C1382      N1386   1.428   1_655  S
C1383      C1388   1.404   1_655  A
C1383      C1392   1.398       .  A
N1384      O1399   1.262       .  A
N1384      O1400   1.262       .  A
N1386      O1397   1.262   1_455  A
N1386      O1398   1.262       .  A
C1388      C1389   1.398       .  A
C1388      N1393   1.427       .  S
C1389      C1390   1.402   1_455  A
C1389      H1394   1.085       .  S
C1390      C1391   1.409       .  A
C1391      C1392   1.394       .  A
C1391      N1395   1.431       .  S
C1392      H1396   1.084       .  S
N1393      O1403   1.262       .  A
N1393      O1404   1.262       .  A
N1395      O1401   1.262       .  A
N1395      O1402   1.261       .  A
C1405      C1406   1.406       .  A
C1405      C1410   1.402       .  A
C1405      H1415   1.084       .  S
C1406      C1411   1.490       .  S
C1406      C1407   1.411   1_556  A
C1407      C1408   1.401   1_554  A
C1407      N1412   1.430       .  S
C1408      C1409   1.407       .  A
C1408      H1413   1.085   1_556  S
C1409      C1410   1.410       .  A
C1410      N1414   1.428       .  S
C1411      C1416   1.409       .  A
C1411      C1420   1.406   1_556  A
N1412      O1427   1.262       .  A
N1412      O1428   1.262       .  A
N1414      O1425   1.261       .  A
N1414      O1426   1.262       .  A
C1416      C1417   1.397       .  A
C1416      N1421   1.430       .  S
C1417      C1418   1.408   1_546  A
C1417      H1422   1.084       .  S
C1418      C1419   1.415   1_565  A
C1419      C1420   1.405       .  A
C1419      N1423   1.428   1_545  S
C1420      H1424   1.084       .  S
N1421      O1431   1.262       .  A
N1421      O1432   1.262       .  A
N1423      O1429   1.262       .  A
N1423      O1430   1.261   1_565  A
C1433      C1434   1.403       .  A
C1433      C1438   1.403       .  A
C1433      H1443   1.084       .  S
C1434      C1439   1.480       .  S
C1434      C1435   1.407       .  A
C1435      C1436   1.399       .  A
C1435      N1440   1.431       .  S
C1436      C1437   1.410       .  A
C1436      H1441   1.084       .  S
C1437      C1438   1.414       .  A
C1438      N1442   1.429       .  S
C1439      C1444   1.408   1_545  A
C1439      C1448   1.398       .  A
N1440      O1455   1.262       .  A
N1440      O1456   1.262       .  A
N1442      O1453   1.262       .  A
N1442      O1454   1.262       .  A
C1444      C1445   1.403       .  A
C1444      N1449   1.429       .  S
C1445      C1446   1.409       .  A
C1445      H1450   1.084       .  S
C1446      C1447   1.418       .  A
C1447      C1448   1.398   1_565  A
C1447      N1451   1.428   1_565  S
C1448      H1452   1.085       .  S
N1449      O1459   1.262       .  A
N1449      O1460   1.262       .  A
N1451      O1457   1.262       .  A
N1451      O1458   1.262       .  A
C1461      C1462   1.401       .  A
C1461      C1466   1.401       .  A
C1461      H1471   1.084   1_556  S
C1462      C1467   1.487       .  S
C1462      C1463   1.411       .  A
C1463      C1464   1.406       .  A
C1463      N1468   1.430       .  S
C1464      C1465   1.407       .  A
C1464      H1469   1.084       .  S
C1465      C1466   1.414       .  A
C1466      N1470   1.428       .  S
C1467      C1472   1.409       .  A
C1467      C1476   1.403   1_556  A
N1468      O1483   1.262       .  A
N1468      O1484   1.262       .  A
N1470      O1481   1.261       .  A
N1470      O1482   1.262   1_556  A
C1472      C1473   1.403       .  A
C1472      N1477   1.430       .  S
C1473      C1474   1.410   1_556  A
C1473      H1478   1.084       .  S
C1474      C1475   1.415       .  A
C1475      C1476   1.404       .  A
C1475      N1479   1.428       .  S
C1476      H1480   1.084       .  S
N1477      O1487   1.262       .  A
N1477      O1488   1.262       .  A
N1479      O1485   1.262       .  A
N1479      O1486   1.262       .  A
C1489      C1490   1.401       .  A
C1489      C1494   1.402       .  A
C1489      H1499   1.097       .  S
C1490      C1495   1.480       .  S
C1490      C1491   1.410       .  A
C1491      C1492   1.393       .  A
C1491      N1496   1.429       .  S
C1492      C1493   1.401       .  A
C1492      H1497   1.108       .  S
C1493      C1494   1.418       .  A
C1494      N1498   1.429       .  S
C1495      C1500   1.411       .  A
C1495      C1504   1.397       .  A
N1496      O1511   1.262       .  A
N1496      O1512   1.262       .  A
N1498      O1509   1.262       .  A
N1498      O1510   1.262   1_565  A
C1500      C1501   1.404       .  A
C1500      N1505   1.433       .  S
C1501      C1502   1.406       .  A
C1501      H1506   1.083       .  S
C1502      C1503   1.420       .  A
C1503      C1504   1.396       .  A
C1503      N1507   1.430   1_556  S
C1504      H1508   1.083       .  S
N1505      O1515   1.262       .  A
N1505      O1516   1.262       .  A
N1507      O1513   1.262       .  A
N1507      O1514   1.262       .  A
C1517      C1518   1.404       .  A
C1517      C1522   1.405       .  A
C1517      H1527   1.084       .  S
C1518      C1523   1.490       .  S
C1518      C1519   1.412       .  A
C1519      C1520   1.403       .  A
C1519      N1524   1.432       .  S
C1520      C1521   1.405       .  A
C1520      H1525   1.084       .  S
C1521      C1522   1.414       .  A
C1522      N1526   1.429       .  S
C1523      C1528   1.411       .  A
C1523      C1532   1.403       .  A
N1524      O1539   1.262       .  A
N1524      O1540   1.262       .  A
N1526      O1537   1.262       .  A
N1526      O1538   1.262       .  A
C1528      C1529   1.403       .  A
C1528      N1533   1.431       .  S
C1529      C1530   1.405       .  A
C1529      H1534   1.085       .  S
C1530      C1531   1.413       .  A
C1531      C1532   1.406       .  A
C1531      N1535   1.430       .  S
C1532      H1536   1.084       .  S
N1533      O1543   1.262       .  A
N1533      O1544   1.262       .  A
N1535      O1541   1.262       .  A
N1535      O1542   1.262       .  A
C1545      C1546   1.402       .  A
C1545      C1550   1.400       .  A
C1545      H1555   1.085       .  S
C1546      C1551   1.484       .  S
C1546      C1547   1.410       .  A
C1547      C1548   1.402       .  A
C1547      N1552   1.429       .  S
C1548      C1549   1.404       .  A
C1548      H1553   1.084       .  S
C1549      C1550   1.416       .  A
C1550      N1554   1.431       .  S
C1551      C1556   1.408       .  A
C1551      C1560   1.402       .  A
N1552      O1567   1.262       .  A
N1552      O1568   1.262       .  A
N1554      O1565   1.262       .  A
N1554      O1566   1.262       .  A
C1556      C1557   1.402       .  A
C1556      N1561   1.430       .  S
C1557      C1558   1.409       .  A
C1557      H1562   1.084       .  S
C1558      C1559   1.416       .  A
C1559      C1560   1.400       .  A
C1559      N1563   1.429       .  S
C1560      H1564   1.084       .  S
N1561      O1571   1.262       .  A
N1561      O1572   1.262       .  A
N1563      O1569   1.262       .  A
N1563      O1570   1.262       .  A
C1573      C1574   1.406       .  A
C1573      C1578   1.404       .  A
C1573      H1583   1.084       .  S
C1574      C1579   1.500       .  S
C1574      C1575   1.415       .  A
C1575      C1576   1.405       .  A
C1575      N1580   1.429       .  S
C1576      C1577   1.403       .  A
C1576      H1581   1.084       .  S
C1577      C1578   1.414       .  A
C1578      N1582   1.430       .  S
C1579      C1584   1.413       .  A
C1579      C1588   1.407       .  A
N1580      O1595   1.262       .  A
N1580      O1596   1.262       .  A
N1582      O1593   1.262       .  A
N1582      O1594   1.262       .  A
C1584      C1585   1.403       .  A
C1584      N1589   1.430       .  S
C1585      C1586   1.408       .  A
C1585      H1590   1.084       .  S
C1586      C1587   1.414       .  A
C1587      C1588   1.406       .  A
C1587      N1591   1.429       .  S
C1588      H1592   1.084       .  S
N1589      O1599   1.262       .  A
N1589      O1600   1.262       .  A
N1591      O1597   1.262       .  A
N1591      O1598   1.262       .  A
C1601      C1602   1.406       .  A
C1601      C1606   1.404       .  A
C1601      H1611   1.084       .  S
C1602      C1607   1.489       .  S
C1602      C1603   1.410       .  A
C1603      C1604   1.401       .  A
C1603      N1608   1.429       .  S
C1604      C1605   1.403       .  A
C1604      H1609   1.085       .  S
C1605      C1606   1.407       .  A
C1606      N1610   1.428       .  S
C1607      C1612   1.411       .  A
C1607      C1616   1.401       .  A
N1608      O1623   1.261       .  A
N1608      O1624   1.262       .  A
N1610      O1621   1.262       .  A
N1610      O1622   1.262   1_556  A
C1612      C1613   1.404       .  A
C1612      N1617   1.429       .  S
C1613      C1614   1.406       .  A
C1613      H1618   1.084       .  S
C1614      C1615   1.419       .  A
C1615      C1616   1.399       .  A
C1615      N1619   1.431       .  S
C1616      H1620   1.084       .  S
N1617      O1627   1.262       .  A
N1617      O1628   1.262       .  A
N1619      O1625   1.262       .  A
N1619      O1626   1.262       .  A
C1629      C1630   1.407       .  A
C1629      C1634   1.408       .  A
C1629      H1639   1.084       .  S
C1630      C1635   1.496       .  S
C1630      C1631   1.411       .  A
C1631      C1632   1.399       .  A
C1631      N1636   1.430       .  S
C1632      C1633   1.406       .  A
C1632      H1637   1.084       .  S
C1633      C1634   1.415       .  A
C1634      N1638   1.429       .  S
C1635      C1640   1.410       .  A
C1635      C1644   1.407       .  A
N1636      O1651   1.262       .  A
N1636      O1652   1.262       .  A
N1638      O1649   1.262       .  A
N1638      O1650   1.262       .  A
C1640      C1641   1.403       .  A
C1640      N1645   1.429       .  S
C1641      C1642   1.409       .  A
C1641      H1646   1.084       .  S
C1642      C1643   1.414       .  A
C1643      C1644   1.405       .  A
C1643      N1647   1.428       .  S
C1644      H1648   1.084       .  S
N1645      O1655   1.262       .  A
N1645      O1656   1.262       .  A
N1647      O1653   1.262       .  A
N1647      O1654   1.262       .  A
C1657      C1658   1.398       .  A
C1657      C1662   1.398       .  A
C1657      H1667   1.085       .  S
C1658      C1663   1.478       .  S
C1658      C1659   1.406       .  A
C1659      C1660   1.404       .  A
C1659      N1664   1.428       .  S
C1660      C1661   1.408       .  A
C1660      H1665   1.084       .  S
C1661      C1662   1.420       .  A
C1662      N1666   1.430       .  S
C1663      C1668   1.403       .  A
C1663      C1672   1.403       .  A
N1664      O1679   1.262       .  A
N1664      O1680   1.262       .  A
N1666      O1677   1.262       .  A
N1666      O1678   1.262       .  A
C1668      C1669   1.394       .  A
C1668      N1673   1.429       .  S
C1669      C1670   1.409       .  A
C1669      H1674   1.090   1_556  S
C1670      C1671   1.416       .  A
C1671      C1672   1.406       .  A
C1671      N1675   1.428       .  S
C1672      H1676   1.088       .  S
N1673      O1683   1.262   1_556  A
N1673      O1684   1.261   1_556  A
N1675      O1681   1.262       .  A
N1675      O1682   1.262       .  A
C1685      C1686   1.403       .  A
C1685      C1690   1.402       .  A
C1685      H1695   1.084       .  S
C1686      C1691   1.487       .  S
C1686      C1687   1.409       .  A
C1687      C1688   1.404       .  A
C1687      N1692   1.431       .  S
C1688      C1689   1.410       .  A
C1688      H1693   1.084       .  S
C1689      C1690   1.415       .  A
C1690      N1694   1.428       .  S
C1691      C1696   1.412       .  A
C1691      C1700   1.401       .  A
N1692      O1707   1.262       .  A
N1692      O1708   1.262       .  A
N1694      O1705   1.262       .  A
N1694      O1706   1.262       .  A
C1696      C1697   1.406       .  A
C1696      N1701   1.430       .  S
C1697      C1698   1.406       .  A
C1697      H1702   1.084       .  S
C1698      C1699   1.414       .  A
C1699      C1700   1.399       .  A
C1699      N1703   1.429       .  S
C1700      H1704   1.085       .  S
N1701      O1711   1.262       .  A
N1701      O1712   1.262       .  A
N1703      O1709   1.262       .  A
N1703      O1710   1.261       .  A
C1713      C1714   1.404       .  A
C1713      C1718   1.405       .  A
C1713      H1723   1.084       .  S
C1714      C1719   1.498       .  S
C1714      C1715   1.416       .  A
C1715      C1716   1.404       .  A
C1715      N1720   1.429       .  S
C1716      C1717   1.402       .  A
C1716      H1721   1.084       .  S
C1717      C1718   1.417       .  A
C1718      N1722   1.435       .  S
C1719      C1724   1.416       .  A
C1719      C1728   1.405       .  A
N1720      O1735   1.262       .  A
N1720      O1736   1.262       .  A
N1722      O1733   1.262       .  A
N1722      O1734   1.262       .  A
C1724      C1725   1.404       .  A
C1724      N1729   1.430       .  S
C1725      C1726   1.404       .  A
C1725      H1730   1.085       .  S
C1726      C1727   1.414       .  A
C1727      C1728   1.404       .  A
C1727      N1731   1.429       .  S
C1728      H1732   1.084       .  S
N1729      O1739   1.262       .  A
N1729      O1740   1.262       .  A
N1731      O1737   1.262       .  A
N1731      O1738   1.262       .  A
C1741      C1742   1.400       .  A
C1741      C1746   1.402       .  A
C1741      H1751   1.084       .  S
C1742      C1747   1.489       .  S
C1742      C1743   1.412       .  A
C1743      C1744   1.409       .  A
C1743      N1748   1.428       .  S
C1744      C1745   1.405       .  A
C1744      H1749   1.084       .  S
C1745      C1746   1.416       .  A
C1746      N1750   1.430       .  S
C1747      C1752   1.406       .  A
C1747      C1756   1.405       .  A
N1748      O1763   1.262       .  A
N1748      O1764   1.261       .  A
N1750      O1761   1.262       .  A
N1750      O1762   1.262       .  A
C1752      C1753   1.402       .  A
C1752      N1757   1.429       .  S
C1753      C1754   1.409       .  A
C1753      H1758   1.084       .  S
C1754      C1755   1.415       .  A
C1755      C1756   1.409       .  A
C1755      N1759   1.428       .  S
C1756      H1760   1.084       .  S
N1757      O1767   1.262       .  A
N1757      O1768   1.261       .  A
N1759      O1765   1.262       .  A
N1759      O1766   1.262       .  A
C1769      C1770   1.401       .  A
C1769      C1774   1.398       .  A
C1769      H1779   1.085       .  S
C1770      C1775   1.481       .  S
C1770      C1771   1.408       .  A
C1771      C1772   1.403       .  A
C1771      N1776   1.429       .  S
C1772      C1773   1.407       .  A
C1772      H1777   1.084       .  S
C1773      C1774   1.413       .  A
C1774      N1778   1.429       .  S
C1775      C1780   1.410       .  A
C1775      C1784   1.401       .  A
N1776      O1791   1.262       .  A
N1776      O1792   1.262       .  A
N1778      O1789   1.262       .  A
N1778      O1790   1.262       .  A
C1780      C1781   1.401       .  A
C1780      N1785   1.430       .  S
C1781      C1782   1.404   1_554  A
C1781      H1786   1.085       .  S
C1782      C1783   1.413       .  A
C1783      C1784   1.402   1_556  A
C1783      N1787   1.428       .  S
C1784      H1788   1.084   1_554  S
N1785      O1795   1.262       .  A
N1785      O1796   1.262       .  A
N1787      O1793   1.261       .  A
N1787      O1794   1.261       .  A
C1797      C1798   1.402       .  A
C1797      C1802   1.405       .  A
C1797      H1807   1.084       .  S
C1798      C1803   1.485       .  S
C1798      C1799   1.407       .  A
C1799      C1800   1.403       .  A
C1799      N1804   1.428       .  S
C1800      C1801   1.408       .  A
C1800      H1805   1.084       .  S
C1801      C1802   1.417       .  A
C1802      N1806   1.429       .  S
C1803      C1808   1.411       .  A
C1803      C1812   1.401       .  A
N1804      O1819   1.262       .  A
N1804      O1820   1.261       .  A
N1806      O1817   1.262       .  A
N1806      O1818   1.262       .  A
C1808      C1809   1.406       .  A
C1808      N1813   1.429       .  S
C1809      C1810   1.404       .  A
C1809      H1814   1.084       .  S
C1810      C1811   1.413       .  A
C1811      C1812   1.402       .  A
C1811      N1815   1.429       .  S
C1812      H1816   1.084       .  S
N1813      O1823   1.262       .  A
N1813      O1824   1.261       .  A
N1815      O1821   1.262       .  A
N1815      O1822   1.262       .  A
C1825      C1826   1.406       .  A
C1825      C1830   1.403       .  A
C1825      H1835   1.084       .  S
C1826      C1831   1.485       .  S
C1826      C1827   1.409       .  A
C1827      C1828   1.397       .  A
C1827      N1832   1.430       .  S
C1828      C1829   1.405       .  A
C1828      H1833   1.084       .  S
C1829      C1830   1.411       .  A
C1830      N1834   1.428       .  S
C1831      C1836   1.408       .  A
C1831      C1840   1.405       .  A
N1832      O1847   1.262       .  A
N1832      O1848   1.262       .  A
N1834      O1845   1.262       .  A
N1834      O1846   1.262       .  A
C1836      C1837   1.394       .  A
C1836      N1841   1.430       .  S
C1837      C1838   1.407       .  A
C1837      H1842   1.084       .  S
C1838      C1839   1.413       .  A
C1839      C1840   1.405       .  A
C1839      N1843   1.429       .  S
C1840      H1844   1.084       .  S
N1841      O1851   1.262       .  A
N1841      O1852   1.262       .  A
N1843      O1849   1.262       .  A
N1843      O1850   1.262       .  A
C1853      C1854   1.405   1_554  A
C1853      C1858   1.404       .  A
C1853      H1863   1.084       .  S
C1854      C1859   1.508       .  S
C1854      C1855   1.418       .  A
C1855      C1856   1.410   1_556  A
C1855      N1860   1.429       .  S
C1856      C1857   1.406       .  A
C1856      H1861   1.084       .  S
C1857      C1858   1.419       .  A
C1858      N1862   1.429       .  S
C1859      C1864   1.417       .  A
C1859      C1868   1.407       .  A
N1860      O1875   1.262       .  A
N1860      O1876   1.262       .  A
N1862      O1873   1.262       .  A
N1862      O1874   1.262       .  A
C1864      C1865   1.407       .  A
C1864      N1869   1.430   1_556  S
C1865      C1866   1.406       .  A
C1865      H1870   1.084       .  S
C1866      C1867   1.416       .  A
C1867      C1868   1.408       .  A
C1867      N1871   1.429       .  S
C1868      H1872   1.084       .  S
N1869      O1879   1.262       .  A
N1869      O1880   1.262       .  A
N1871      O1877   1.262       .  A
N1871      O1878   1.262       .  A
C1881      C1882   1.398       .  A
C1881      C1886   1.398       .  A
C1881      H1891   1.085       .  S
C1882      C1887   1.477       .  S
C1882      C1883   1.411       .  A
C1883      C1884   1.402       .  A
C1883      N1888   1.430       .  S
C1884      C1885   1.404       .  A
C1884      H1889   1.084       .  S
C1885      C1886   1.415       .  A
C1886      N1890   1.429       .  S
C1887      C1892   1.403       .  A
C1887      C1896   1.408       .  A
N1888      O1903   1.262       .  A
N1888      O1904   1.262       .  A
N1890      O1901   1.262       .  A
N1890      O1902   1.261       .  A
C1892      C1893   1.392       .  A
C1892      N1897   1.431       .  S
C1893      C1894   1.408       .  A
C1893      H1898   1.084       .  S
C1894      C1895   1.406       .  A
C1895      C1896   1.407       .  A
C1895      N1899   1.426       .  S
C1896      H1900   1.084       .  S
N1897      O1907   1.262       .  A
N1897      O1908   1.262       .  A
N1899      O1905   1.262       .  A
N1899      O1906   1.261       .  A
