geometry optimzed in LAMMPS
_audit_creation_date              2020-11-30 
_audit_creation_method            'lammps2cif' 
_symmetry_space_group_name_H-M    'P1' 
_symmetry_Int_Tables_number       1 
_symmetry_cell_setting            triclinic 
loop_ 
_symmetry_equiv_pos_as_xyz 
  x,y,z 
_cell_length_a                    38.99580393662444 
_cell_length_b                    38.88709499524224 
_cell_length_c                    58.71782117662587 
_cell_angle_alpha                 90.13226064926445 
_cell_angle_beta                  89.96975412263943 
_cell_angle_gamma                 119.12267812679966 
loop_ 
_atom_site_label 
_atom_site_type_symbol 
_atom_site_fract_x 
_atom_site_fract_y 
_atom_site_fract_z 
_atom_site_charge 
O1          O  0.10805204  0.16648466  0.49158675    -0.83580
C2          C  0.05729401  0.25102519  0.53791820     0.95780
O3          O  0.08921311  0.25952170  0.52794513    -0.72690
O4          O  0.13973958  0.24011953  0.51201313    -0.76290
Al5        Al  0.09194382  0.23457707  0.50085078     1.48980
C6          C  0.14760048  0.22578190  0.52904111     0.91030
O7          O  0.04898007  0.13690400  0.54878037    -0.82510
O8          O  0.48683193  0.12093366  0.51234469    -0.76060
Al9        Al  0.07778590  0.15532706  0.51992080     1.90120
O10         O  0.51314149  0.16625675  0.54953314    -0.75130
O11         O  0.50078698  0.18531309  0.48804384    -0.74980
O12         O  0.02483917  0.22894590  0.52815922    -0.80640
O13         O  0.05294783  0.24300193  0.48622401    -0.78850
O14         O  0.05971472  0.18797364  0.51316494    -1.14980
O15         O  0.09645060  0.21027613  0.47407005    -0.74180
C16         C  0.10826685  0.18505218  0.47359404     0.96540
C17         C  0.02428050  0.14427039  0.55873733     0.92940
Al18       Al  0.51030383  0.17621698  0.51882533     1.55560
O19         O  0.12186456  0.19351432  0.53722529    -0.78800
C20         C  0.51782359  0.22019518  0.48063210     0.97110
C21         C  0.50133017  0.09913508  0.50727745     0.91990
O22         O  0.03759973  0.11336802  0.50410207    -0.84120
O23         O  0.10916288  0.40785847  0.68106258    -0.83580
C24         C  0.05848572  0.27363995  0.63452114     0.95780
O25         O  0.09054856  0.29664007  0.64424217    -0.72690
O26         O  0.14102038  0.36572768  0.65958075    -0.76290
Al27       Al  0.09400815  0.32431653  0.67146072     1.48980
C28         C  0.14810517  0.38859123  0.64301938     0.91030
O29         O  0.04811985  0.37932679  0.62483664    -0.82510
O30         O  0.48746622  0.33371558  0.66098890    -0.76060
Al31       Al  0.07787848  0.38913376  0.65329798     1.90120
O32         O  0.51381472  0.31488087  0.62350685    -0.75130
O33         O  0.50280546  0.28352794  0.68488461    -0.74980
O34         O  0.02627766  0.26378976  0.64457311    -0.80640
O35         O  0.05546153  0.27751009  0.68644341    -0.78850
O36         O  0.06091244  0.33890700  0.65971749    -1.14980
O37         O  0.09996694  0.35347893  0.69847826    -0.74180
C38         C  0.11172122  0.39027967  0.69877100     0.96540
C39         C  0.02400247  0.34783599  0.61467582     0.92940
Al40       Al  0.51152266  0.30197261  0.65418529     1.55560
O41         O  0.12166026  0.39517754  0.63536369    -0.78800
C42         C  0.52013929  0.26536578  0.69198598     0.97110
C43         C  0.50165496  0.36940344  0.66658437     0.91990
O44         O  0.03784774  0.39058501  0.66999107    -0.84120
O45         O  0.45464866  0.06147363  0.65745533    -0.83580
C46         C  0.32336569  0.50964316  0.70537818     0.95780
O47         O  0.34517084  0.04200043  0.69546336    -0.72690
O48         O  0.41273350  0.09422945  0.67886336    -0.76290
Al49       Al  0.37158309  0.04667582  0.66771899     1.48980
C50         C  0.43535074  0.10194813  0.69548363     0.91030
O51         O  0.42727625  0.00343291  0.71441869    -0.82510
O52         O  0.38147656  0.44076510  0.67123152    -0.76060
Al53       Al  0.43701655  0.03154862  0.68568671     1.90120
O54         O  0.36494696  0.45984973  0.71200789    -0.75130
O55         O  0.32979921  0.45710539  0.65227403    -0.74980
O56         O  0.31394035  0.47704951  0.69554141    -0.80640
O57         O  0.32374225  0.50945408  0.65330513    -0.78850
O58         O  0.38687356  0.51330952  0.67849766    -1.14980
O59         O  0.40017837  0.05339852  0.64032290    -0.74180
C60         C  0.43689571  0.06461651  0.63994132     0.96540
C61         C  0.39664600  0.47506996  0.72285115     0.92940
Al62       Al  0.35059454  0.46296750  0.68228264     1.55560
O63         O  0.44230657  0.07582815  0.70320249    -0.78800
C64         C  0.31118689  0.47460828  0.64674727     0.97110
C65         C  0.41771886  0.45537858  0.66751928     0.91990
O66         O  0.44078901  0.49153151  0.67027597    -0.84120
O67         O  0.20960966  0.05797216  0.84859144    -0.83580
C68         C  0.29752737  0.51168751  0.80156447     0.95780
O69         O  0.30467634  0.04330735  0.81171075    -0.72690
O70         O  0.28341963  0.09220617  0.82882902    -0.76290
Al71       Al  0.27913914  0.04439756  0.83916304     1.48980
C72         C  0.26942980  0.10025350  0.81172362     0.91030
O73         O  0.18271030  0.00113460  0.79070705    -0.82510
O74         O  0.16807367  0.43758076  0.82631578    -0.76060
Al75       Al  0.19987872  0.02886827  0.81986711     1.90120
O76         O  0.21292235  0.46602080  0.78939012    -0.75130
O77         O  0.23252097  0.45220676  0.85070303    -0.74980
O78         O  0.27597185  0.47880718  0.81098148    -0.80640
O79         O  0.28900131  0.50565098  0.85315481    -0.78850
O80         O  0.23325561  0.51159715  0.82644787    -1.14980
O81         O  0.25383579  0.04718932  0.86620325    -0.74180
C82         C  0.22768758  0.05784555  0.86671171     0.96540
C83         C  0.19044794  0.47687001  0.78050872     0.92940
Al84       Al  0.22309223  0.46259946  0.82011159     1.56520
O85         O  0.23755105  0.07439104  0.80319150    -0.78800
C86         C  0.26736550  0.46989261  0.85808752     0.97110
C87         C  0.14533215  0.45101625  0.83108772     0.91990
O88         O  0.15829084  0.48707443  0.83497623    -0.84120
O89         O  0.42165686  0.40980067  0.82069849    -0.83580
C90         C  0.34659807  0.28106218  0.87549294     0.95780
O91         O  0.32804777  0.28575943  0.85905093    -0.72690
O92         O  0.33443738  0.35446738  0.85420117    -0.76290
Al93       Al  0.34808239  0.32449825  0.83513584     1.48980
C94         C  0.35249600  0.38816298  0.86264718     0.91030
O95         O  0.43867978  0.38590460  0.88193741    -0.82510
O96         O  0.45498033  0.33352765  0.82694478    -0.76060
Al97       Al  0.42827904  0.39483762  0.85052676     1.90120
O98         O  0.45512370  0.34193426  0.87221654    -0.75130
O99         O  0.38388164  0.26898999  0.83095960    -0.74980
O100        O  0.38206413  0.28941230  0.87412630    -0.80640
O101        O  0.34829324  0.28874444  0.81306746    -0.78850
O102        O  0.39748021  0.34370578  0.84486331    -1.14980
O103        O  0.36284267  0.36207945  0.81097354    -0.74180
C104        C  0.39321383  0.39481294  0.80683404     0.96540
C105        C  0.45531602  0.36580271  0.88667369     0.92940
Al106      Al  0.41685084  0.31110177  0.85028073     1.55560
O107        O  0.38939274  0.40662851  0.86236262    -0.78800
C108        C  0.35827741  0.26309098  0.81634312     0.97110
C109        C  0.48069860  0.36956907  0.82866406     0.91990
O110        O  0.47378195  0.39425759  0.83906486    -0.84120
O111        O  0.16438971  0.15378337  0.01871798    -0.83580
C112        C  0.29345389  0.22629339  0.96446188     0.95780
O113        O  0.28879235  0.24566141  0.98055505    -0.72690
O114        O  0.22070014  0.24070064  0.98535960    -0.76290
Al115      Al  0.25009907  0.22666849  0.00456984     1.48980
C116        C  0.18721431  0.22281734  0.97677947     0.91030
O117        O  0.18914847  0.13569879  0.95787355    -0.82510
O118        O  0.23888291  0.11878225  0.01385251    -0.76060
Al119      Al  0.17958910  0.14652777  0.98912895     1.90120
O120        O  0.23162471  0.11793149  0.96838631    -0.75130
O121        O  0.30406268  0.18915267  0.00973688    -0.74980
O122        O  0.28511777  0.19079198  0.96646254    -0.80640
O123        O  0.28565439  0.22666875  0.02680056    -0.78850
O124        O  0.23047575  0.17686081  0.99514409    -1.14980
O125        O  0.21223079  0.21265734  0.02868350    -0.74180
C126        C  0.17919584  0.18241380  0.03253736     0.96540
C127        C  0.20895220  0.11858795  0.95346048     0.92940
Al128      Al  0.26235396  0.15644052  0.99035341     1.55560
O129        O  0.16866941  0.18582502  0.97693690    -0.78800
C130        C  0.31059336  0.21563227  0.02392317     0.97110
C131        C  0.20288641  0.09334133  0.01187380     0.91990
O132        O  0.17898013  0.10056523  0.00093923    -0.84120
O133        O  0.01574334  0.36433229  0.99110131    -0.83580
C134        C  0.06031486  0.27468010  0.03710352     0.95780
O135        O  0.02920471  0.26747187  0.02653865    -0.72690
O136        O  0.98134621  0.29008043  0.00994121    -0.76290
Al137      Al  0.02927316  0.29451647  0.99951770     1.48980
C138        C  0.47328918  0.30371772  0.02730517     0.91030
O139        O  0.07189984  0.39027515  0.04901105    -0.82510
O140        O  0.13542449  0.40540989  0.01471782    -0.76060
Al141      Al  0.04455979  0.37345951  0.01975286     1.90120
O142        O  0.10511462  0.35828160  0.05076048    -0.75130
O143        O  0.12186776  0.34193559  0.98925911    -0.74980
O144        O  0.09339263  0.29622344  0.02795654    -0.80640
O145        O  0.06864977  0.28542124  0.98549099    -0.78850
O146        O  0.06165668  0.33997094  0.01299073    -1.14980
O147        O  0.02741255  0.32110202  0.97282632    -0.74180
C148        C  0.01648522  0.34708841  0.97272717     0.96540
C149        C  0.09480910  0.38127765  0.05962127     0.92940
Al150      Al  0.11015182  0.34978841  0.01988864     1.55560
O151        O  0.99907346  0.33541430  0.03613768    -0.78800
C152        C  0.10462091  0.30736624  0.98124490     0.97110
C153        C  0.12219860  0.42819955  0.00952642     0.91990
O154        O  0.08651061  0.41504184  0.00479147    -0.84120
O155        O  0.01264423  0.12077555  0.18187814    -0.83580
C156        C  0.05752580  0.25292371  0.13382160     0.95780
O157        O  0.02596263  0.22931383  0.14371652    -0.72690
O158        O  0.97801517  0.16022306  0.15977315    -0.76290
Al159      Al  0.02438614  0.20292680  0.17126045     1.48980
C160        C  0.47133841  0.13675384  0.14351183     0.91030
O161        O  0.07235142  0.14878208  0.12524633    -0.82510
O162        O  0.13275808  0.19763594  0.15936744    -0.76060
Al163      Al  0.04311740  0.13923140  0.15388603     1.90120
O164        O  0.10275069  0.21311888  0.12222867    -0.75130
O165        O  0.11626943  0.24620581  0.18341501    -0.74980
O166        O  0.08996678  0.26401486  0.14381440    -0.80640
O167        O  0.06270038  0.25061774  0.18587715    -0.78850
O168        O  0.05819023  0.18935474  0.15941957    -1.14980
O169        O  0.01994369  0.17505409  0.19859430    -0.74180
C170        C  0.00953313  0.13857845  0.19935439     0.96540
C171        C  0.09396860  0.17995160  0.11406475     0.92940
Al172      Al  0.10664312  0.22721984  0.15288640     1.55560
O173        O  0.99810971  0.13033436  0.13613830    -0.78800
C174        C  0.09832714  0.26341374  0.19108057     0.97110
C175        C  0.12064257  0.16361619  0.16729701     0.91990
O176        O  0.08468380  0.14094961  0.17068469    -0.84120
O177        O  0.16372598  0.96846697  0.15747472    -0.83580
C178        C  0.29409308  0.02258555  0.20650555     0.95780
O179        O  0.27343080  0.98978097  0.19656620    -0.72690
O180        O  0.20699275  0.43469430  0.17978473    -0.76290
Al181      Al  0.24693691  0.98252134  0.16871353     1.48980
C182        C  0.18305812  0.42624580  0.19564842     0.91030
O183        O  0.19124839  0.02287187  0.21561982    -0.82510
O184        O  0.23496626  0.08587578  0.16605580    -0.76060
Al185      Al  0.18070005  0.99666370  0.18636561     1.90120
O186        O  0.24874805  0.07403961  0.20904075    -0.75130
O187        O  0.28989116  0.07087544  0.15178969    -0.74980
O188        O  0.30147517  0.05504323  0.19716738    -0.80640
O189        O  0.29482142  0.01830322  0.15440492    -0.78850
O190        O  0.23069214  0.01574867  0.17845559    -1.14980
O191        O  0.21802104  0.47359538  0.14119847    -0.74180
C192        C  0.18150167  0.96353037  0.14046358     0.96540
C193        C  0.21932332  0.05589051  0.22162686     0.92940
Al194      Al  0.26582050  0.06684689  0.18064762     1.55560
O195        O  0.17486959  0.45167494  0.20285428    -0.78800
C196        C  0.30820422  0.05272369  0.14730253     0.97110
C197        C  0.19850438  0.07262553  0.16767337     0.91990
O198        O  0.17569335  0.03755780  0.17323502    -0.84120
O199        O  0.40976515  0.96865211  0.34872809    -0.83580
C200        C  0.32469037  0.01877798  0.30167488     0.95780
O201        O  0.31725658  0.98670851  0.31116661    -0.72690
O202        O  0.33672950  0.43636187  0.32713394    -0.76290
Al203      Al  0.34118968  0.98357073  0.33851970     1.48980
C204        C  0.35205561  0.42892116  0.31042726     0.91030
O205        O  0.44032789  0.02861867  0.29187462    -0.82510
O206        O  0.45380814  0.09029827  0.32827825    -0.76060
Al207      Al  0.42143344  0.99939036  0.32054540     1.90120
O208        O  0.41021519  0.06382214  0.29063012    -0.75130
O209        O  0.38856010  0.07495337  0.35198730    -0.74980
O210        O  0.34668144  0.05126793  0.31145308    -0.80640
O211        O  0.33158337  0.02183429  0.35321756    -0.78850
O212        O  0.38791901  0.01662557  0.32684775    -1.14980
O213        O  0.36430636  0.47835807  0.36560569    -0.74180
C214        C  0.38963815  0.46673743  0.36634231     0.96540
C215        C  0.43283658  0.05310279  0.28175381     0.92940
Al216      Al  0.39899908  0.06608909  0.32130776     1.55560
O217        O  0.38463712  0.45495238  0.30280010    -0.78800
C218        C  0.35350398  0.05713341  0.35899590     0.97110
C219        C  0.47588229  0.07628682  0.33345741     0.91990
O220        O  0.46218887  0.04004741  0.33686064    -0.84120
O221        O  0.20923161  0.12000735  0.32310810    -0.83580
C222        C  0.28758214  0.24921107  0.37301059     0.95780
O223        O  0.29745147  0.22658394  0.36271032    -0.72690
O224        O  0.28277004  0.15917853  0.34430093    -0.76290
Al225      Al  0.27669224  0.20170722  0.33455437     1.48980
C226        C  0.26897555  0.13724242  0.36116319     0.91030
O227        O  0.18056366  0.14627241  0.38107036    -0.82510
O228        O  0.16440163  0.19557420  0.33547648    -0.76060
Al229      Al  0.19762086  0.13703228  0.35197431     1.90120
O230        O  0.19288790  0.20734926  0.37784443    -0.75130
O231        O  0.23323636  0.24898304  0.31993807    -0.74980
O232        O  0.26314695  0.25836548  0.36437670    -0.80640
O233        O  0.28928218  0.25077322  0.32135355    -0.78850
O234        O  0.22878225  0.18737882  0.34512098    -1.14980
O235        O  0.25504580  0.17496500  0.30669930    -0.74180
C236        C  0.22929578  0.13853265  0.30562893     0.96540
C237        C  0.17899302  0.17576935  0.38886874     0.92940
Al238      Al  0.21476213  0.22441352  0.34894697     1.55560
O239        O  0.23623402  0.13029459  0.36890468    -0.78800
C240        C  0.26899454  0.26571542  0.31481418     0.97110
C241        C  0.14229732  0.15908298  0.33300253     0.91990
O242        O  0.15383239  0.13473227  0.33751460    -0.84120
O243        O  0.45507149  0.36182348  0.51556958    -0.83580
C244        C  0.32379065  0.28557296  0.46751889     0.95780
O245        O  0.34591172  0.27467381  0.47728645    -0.72690
O246        O  0.41338260  0.28803873  0.49412677    -0.76290
Al247      Al  0.37224905  0.29531895  0.50507121     1.48980
C248        C  0.43533912  0.30199113  0.47726964     0.91030
O249        O  0.42759542  0.39236449  0.45835711    -0.82510
O250        O  0.38162556  0.41011242  0.50359997    -0.76060
Al251      Al  0.43744600  0.37427640  0.48717898     1.90120
O252        O  0.36623506  0.37819396  0.46194266    -0.75130
O253        O  0.32892859  0.34226447  0.52097643    -0.74980
O254        O  0.31508209  0.30974553  0.47703725    -0.80640
O255        O  0.32432008  0.28473068  0.51930594    -0.78850
O256        O  0.38734891  0.34368716  0.49459042    -1.14980
O257        O  0.40058168  0.31634087  0.53251442    -0.74180
C258        C  0.43720593  0.34128742  0.53305565     0.96540
C259        C  0.39747363  0.39275993  0.45064209     0.92940
Al260      Al  0.35106582  0.35872163  0.49131788     1.55560
O261        O  0.44254061  0.33501468  0.46969618    -0.78800
C262        C  0.31091411  0.30638693  0.52607386     0.97110
C263        C  0.41809676  0.43136024  0.50630897     0.91990
O264        O  0.44144854  0.41844357  0.50226193    -0.84120
C265        C  0.29806555  0.29497105  0.43074933    -0.15130
C266        C  0.31197215  0.27400426  0.44374139     0.07020
C267        C  0.32068826  0.24701878  0.43283900    -0.15130
C268        C  0.31510172  0.24076054  0.40942125    -0.15130
C269        C  0.30083891  0.26149225  0.39650514     0.07020
C270        C  0.29260807  0.28881535  0.40737189    -0.15130
H271        H  0.29216347  0.31682483  0.43854447     0.11010
H272        H  0.33220726  0.23105286  0.44235820     0.11010
H273        H  0.32081297  0.21881455  0.40156562     0.11010
H274        H  0.28116020  0.30487310  0.39787920     0.11010
C275        C  0.36738319  0.44214547  0.40568387    -0.15130
C276        C  0.39401087  0.44912406  0.38790442     0.07020
C277        C  0.42317944  0.43799592  0.39095698    -0.15130
C278        C  0.42523273  0.41997216  0.41136918    -0.15130
C279        C  0.39769683  0.41222881  0.42881431     0.07020
C280        C  0.36907693  0.42390177  0.42566340    -0.15130
H281        H  0.34459012  0.45026495  0.40410195     0.11010
H282        H  0.44423189  0.94306401  0.37756931     0.11010
H283        H  0.44774721  0.41156581  0.41335103     0.11010
H284        H  0.34771513  0.41909459  0.43882659     0.11010
C285        C  0.35132407  0.36641846  0.30029820    -0.15130
C286        C  0.33158653  0.38828632  0.30165893     0.07020
C287        C  0.29029940  0.36838717  0.30127618    -0.15130
C288        C  0.26911464  0.32734669  0.30263355    -0.15130
C289        C  0.28896211  0.30557352  0.30451659     0.07020
C290        C  0.33012666  0.32526819  0.30169367    -0.15130
H291        H  0.38310523  0.38110578  0.30084121     0.11010
H292        H  0.27450897  0.38481642  0.30232871     0.11010
H293        H  0.23754153  0.31318167  0.30463529     0.11010
H294        H  0.34633581  0.30930473  0.30292085     0.11010
C295        C  0.03874212  0.14061324  0.33767567    -0.15130
C296        C  0.01862333  0.10061445  0.33172929     0.07020
C297        C  0.03931477  0.08332167  0.32180140    -0.15130
C298        C  0.07974622  0.10443333  0.31954939    -0.15130
C299        C  0.10056859  0.14316217  0.32759472     0.07020
C300        C  0.07978799  0.16178309  0.33584296    -0.15130
H301        H  0.02304739  0.15476287  0.34465153     0.11010
H302        H  0.02417268  0.05300135  0.31600821     0.11010
H303        H  0.09501402  0.08954340  0.31296724     0.11010
H304        H  0.09536126  0.19160538  0.34239075     0.11010
C305        C  0.29457801  0.05856505  0.37459947    -0.15130
C306        C  0.33510731  0.07881542  0.36956586     0.07020
C307        C  0.35436180  0.12002854  0.36844575    -0.15130
C308        C  0.33261742  0.13984390  0.36864452    -0.15130
C309        C  0.29142278  0.11884942  0.37017266     0.07020
C310        C  0.27279922  0.07849186  0.37483798    -0.15130
H311        H  0.27889390  0.02674650  0.37577445     0.11010
H312        H  0.38544684  0.13653980  0.36472009     0.11010
H313        H  0.34762401  0.17120612  0.36528731     0.11010
H314        H  0.24111497  0.06173462  0.37605316     0.11010
C315        C  0.29928894  0.98750962  0.24064105    -0.15130
C316        C  0.30545174  0.02264481  0.23039969     0.07020
C317        C  0.31550365  0.05587334  0.24413679    -0.15130
C318        C  0.31936666  0.05397858  0.26763551    -0.15130
C319        C  0.31320084  0.01882430  0.27784672     0.07020
C320        C  0.30312941  0.98561497  0.26413186    -0.15130
H321        H  0.29086653  0.96125761  0.23053599     0.11010
H322        H  0.31935901  0.08307580  0.23682767     0.11010
H323        H  0.32781007  0.08020446  0.27777408     0.11010
H324        H  0.29929482  0.95842734  0.27146213     0.11010
C325        C  0.19679404  0.05525254  0.26218128    -0.15130
C326        C  0.21856486  0.07581073  0.24301933     0.07020
C327        C  0.24140035  0.11707858  0.24425375    -0.15130
C328        C  0.24385234  0.13728322  0.26432837    -0.15130
C329        C  0.22361519  0.11685186  0.28386866     0.07020
C330        C  0.19943010  0.07562645  0.28250430    -0.15130
H331        H  0.17879528  0.02353700  0.26165316     0.11010
H332        H  0.25789695  0.13396466  0.22962048     0.11010
H333        H  0.26228006  0.16896332  0.26461487     0.11010
H334        H  0.18325791  0.05901883  0.29727546     0.11010
C335        C  0.98743979  0.07862663  0.22472016    -0.15130
C336        C  0.99149921  0.11619326  0.22058655     0.07020
C337        C  0.97655711  0.13208357  0.23668836    -0.15130
C338        C  0.45732789  0.11092094  0.25607938    -0.15130
C339        C  0.45285816  0.07331507  0.26033282     0.07020
C340        C  0.46872988  0.05755609  0.24462805    -0.15130
H341        H  0.99879293  0.06564186  0.21261148     0.11010
H342        H  0.97899732  0.16076586  0.23410938     0.11010
H343        H  0.44621399  0.12445657  0.26798179     0.11010
H344        H  0.46613960  0.02890521  0.24754860     0.11010
C345        C  0.40875684  0.13528618  0.13420774    -0.15130
C346        C  0.43070870  0.11541838  0.13496434     0.07020
C347        C  0.41103871  0.07423762  0.13375160    -0.15130
C348        C  0.36995345  0.05324338  0.13489951    -0.15130
C349        C  0.34812380  0.07322850  0.13720925     0.07020
C350        C  0.36779163  0.11439510  0.13518700    -0.15130
H351        H  0.42344987  0.16715776  0.13511761     0.11010
H352        H  0.42734087  0.05832603  0.13455239     0.11010
H353        H  0.35564817  0.02147152  0.13629715     0.11010
H354        H  0.35197253  0.13069275  0.13681545     0.11010
C355        C  0.13688145  0.11692558  0.18578142    -0.15130
C356        C  0.14737040  0.14759798  0.17027750     0.07020
C357        C  0.17756461  0.15600768  0.15441594    -0.15130
C358        C  0.19523082  0.13207140  0.15324016    -0.15130
C359        C  0.18202489  0.09934139  0.16761560     0.07020
C360        C  0.15388187  0.09300362  0.18439959    -0.15130
H361        H  0.11385278  0.11005904  0.19817458     0.11010
H362        H  0.18562500  0.17933940  0.14205434     0.11010
H363        H  0.21775873  0.13804839  0.14066845     0.11010
H364        H  0.14459546  0.06903439  0.19645828     0.11010
C365        C  0.10134049  0.32460445  0.20690575    -0.15130
C366        C  0.12048499  0.30267175  0.20194757     0.07020
C367        C  0.16168816  0.32220928  0.20155469    -0.15130
C368        C  0.18280731  0.36324615  0.20238174    -0.15130
C369        C  0.16313992  0.38533465  0.20392447     0.07020
C370        C  0.12259661  0.36578072  0.20790601    -0.15130
H371        H  0.06959530  0.31036743  0.20751698     0.11010
H372        H  0.17739694  0.30626764  0.19798420     0.11010
H373        H  0.21423670  0.37781539  0.19956136     0.11010
H374        H  0.10683335  0.38220064  0.20914227     0.11010
C375        C  0.02282580  0.24668798  0.07316064    -0.15130
C376        C  0.05877971  0.26488844  0.06144921     0.07020
C377        C  0.09389574  0.28110330  0.07397575    -0.15130
C378        C  0.09320333  0.28013992  0.09762452    -0.15130
C379        C  0.05738280  0.26154670  0.10940439     0.07020
C380        C  0.02213646  0.24468631  0.09694785    -0.15130
H381        H  0.99529142  0.23469392  0.06398494     0.11010
H382        H  0.12214045  0.29594556  0.06554470     0.11010
H383        H  0.12092314  0.29283044  0.10664711     0.11010
H384        H  0.99408288  0.22940458  0.10555150     0.11010
C385        C  0.10447187  0.42637005  0.09323583    -0.15130
C386        C  0.11368587  0.40025788  0.08159214     0.07020
C387        C  0.14514574  0.39547943  0.08969371    -0.15130
C388        C  0.16744450  0.41684980  0.10836732    -0.15130
C389        C  0.15846617  0.44295967  0.11995473     0.07020
C390        C  0.12631367  0.94707419  0.11251429    -0.15130
H391        H  0.08081877  0.43110619  0.08731037     0.11010
H392        H  0.15349089  0.37592281  0.08118017     0.11010
H393        H  0.19151611  0.41249319  0.11397254     0.11010
H394        H  0.11862465  0.96686688  0.12133331     0.11010
C395        C  0.16305485  0.21600997  0.06360914    -0.15130
C396        C  0.15666677  0.18093732  0.05322008     0.07020
C397        C  0.12754241  0.14486106  0.06221733    -0.15130
C398        C  0.10602631  0.14402007  0.08163933    -0.15130
C399        C  0.11269430  0.17927818  0.09209663     0.07020
C400        C  0.14120781  0.21522315  0.08260468    -0.15130
H401        H  0.18480250  0.24423624  0.05691420     0.11010
H402        H  0.12189040  0.11730575  0.05445846     0.11010
H403        H  0.08467263  0.11590334  0.08863028     0.11010
H404        H  0.14754110  0.24308521  0.09020592     0.11010
C405        C  0.12785721  0.22750328  0.96477547    -0.15130
C406        C  0.16829611  0.24615394  0.96929135     0.07020
C407        C  0.18868421  0.28749677  0.97160896    -0.15130
C408        C  0.16832593  0.30883405  0.97262519    -0.15130
C409        C  0.12719049  0.28930052  0.97119505     0.07020
C410        C  0.10754106  0.24889546  0.96561346    -0.15130
H411        H  0.11126947  0.19582999  0.96275555     0.11010
H412        H  0.21997431  0.30297865  0.97485533     0.11010
H413        H  0.18445139  0.33988636  0.97680628     0.11010
H414        H  0.07586237  0.23291063  0.96417417     0.11010
C415        C  0.14902087  0.03132423  0.02543586    -0.15130
C416        C  0.18827966  0.05251033  0.01868248     0.07020
C417        C  0.20775943  0.03218502  0.01115147    -0.15130
C418        C  0.18686616  0.49116882  0.00842187    -0.15130
C419        C  0.14639460  0.47078167  0.01276920     0.07020
C420        C  0.12820433  0.49094114  0.02230244    -0.15130
H421        H  0.13349682  0.04649955  0.03116957     0.11010
H422        H  0.23795031  0.04823365  0.00542541     0.11010
H423        H  0.20161248  0.47582591  0.00176683     0.11010
H424        H  0.09738020  0.47551733  0.02685325     0.11010
C425        C  0.37324798  0.21831366  0.03526014    -0.15130
C426        C  0.35008723  0.23684050  0.03446471     0.07020
C427        C  0.36846344  0.27797110  0.03749758    -0.15130
C428        C  0.40964218  0.30046843  0.03815023    -0.15130
C429        C  0.43264513  0.28195017  0.03587989     0.07020
C430        C  0.41409978  0.24065373  0.03591926    -0.15130
H431        H  0.35997424  0.18672844  0.03298952     0.11010
H432        H  0.35139964  0.29308803  0.03667523     0.11010
H433        H  0.42332471  0.33229724  0.03785601     0.11010
H434        H  0.43130508  0.22576197  0.03419790     0.11010
C435        C  0.29598804  0.23249371  0.90100725    -0.15130
C436        C  0.32870104  0.26924156  0.89770090     0.07020
C437        C  0.34807007  0.29387137  0.91636455    -0.15130
C438        C  0.33583716  0.28098443  0.93848174    -0.15130
C439        C  0.30483465  0.24306114  0.94185587     0.07020
C440        C  0.28425435  0.21931565  0.92309359    -0.15130
H441        H  0.28105292  0.21336595  0.88670158     0.11010
H442        H  0.37349405  0.32255298  0.91375704     0.11010
H443        H  0.35161221  0.29960004  0.95279990     0.11010
H444        H  0.25959060  0.19013734  0.92558965     0.11010
C445        C  0.00147603  0.35306189  0.90960015    -0.15130
C446        C  0.47497616  0.36792257  0.90875568     0.07020
C447        C  0.46459742  0.37919848  0.92925812    -0.15130
C448        C  0.47904835  0.37377002  0.95019065    -0.15130
C449        C  0.00371432  0.35665323  0.95089283     0.07020
C450        C  0.01538136  0.34728455  0.93028847    -0.15130
H451        H  0.01053185  0.34443530  0.89413518     0.11010
H452        H  0.44403930  0.39037610  0.92919264     0.11010
H453        H  0.46966012  0.38143918  0.96585483     0.11010
H454        H  0.03481906  0.33474347  0.93014408     0.11010
C455        C  0.19936544  0.09340451  0.88991185    -0.15130
C456        C  0.21888764  0.07094059  0.88876126     0.07020
C457        C  0.23120434  0.06162417  0.90912176    -0.15130
C458        C  0.22564835  0.07546241  0.92993765    -0.15130
C459        C  0.20796769  0.09955599  0.93121123     0.07020
C460        C  0.19408920  0.10776947  0.91097817    -0.15130
H461        H  0.18938740  0.10098018  0.87447059     0.11010
H462        H  0.24574016  0.04396044  0.90898600     0.11010
H463        H  0.23642417  0.06805951  0.94513294     0.11010
H464        H  0.18063786  0.12640547  0.91133370     0.11010
C465        C  0.33236705  0.15933023  0.80298963    -0.15130
C466        C  0.29117777  0.14100931  0.80318034     0.07020
C467        C  0.27301661  0.16443380  0.80156127    -0.15130
C468        C  0.29577890  0.20567320  0.80267833    -0.15130
C469        C  0.33678921  0.22367566  0.80560505     0.07020
C470        C  0.35495324  0.20023117  0.80425068    -0.15130
H471        H  0.34699581  0.14180257  0.80425892     0.11010
H472        H  0.24131085  0.15096512  0.80204185     0.11010
H473        H  0.28096375  0.22300723  0.80394582     0.11010
H474        H  0.38641957  0.21324073  0.80645575     0.11010
C475        C  0.08278655  0.44331102  0.81717115    -0.15130
C476        C  0.10287647  0.42633364  0.82812804     0.07020
C477        C  0.08257587  0.38636908  0.83403200    -0.15130
C478        C  0.04169484  0.36503067  0.83127920    -0.15130
C479        C  0.02142976  0.38347995  0.82215466     0.07020
C480        C  0.04253813  0.42200188  0.81402882    -0.15130
H481        H  0.09818212  0.47362841  0.81146770     0.11010
H482        H  0.09787361  0.37249985  0.84184190     0.11010
H483        H  0.02566839  0.33550494  0.83814120     0.11010
H484        H  0.02738475  0.43677197  0.80714479     0.11010
C485        C  0.32645730  0.46815600  0.87319919    -0.15130
C486        C  0.28593647  0.44796674  0.86824983     0.07020
C487        C  0.26657857  0.40667885  0.86752632    -0.15130
C488        C  0.28809836  0.38653584  0.86856482    -0.15130
C489        C  0.32940780  0.40729946  0.87018276     0.07020
C490        C  0.34802369  0.44805016  0.87404455    -0.15130
H491        H  0.34231371  0.50000611  0.87410369     0.11010
H492        H  0.23546280  0.39017833  0.86386010     0.11010
H493        H  0.27267191  0.35497825  0.86586593     0.11010
H494        H  0.37966471  0.46491294  0.87552189     0.11010
C495        C  0.30063840  0.47545518  0.74257212    -0.15130
C496        C  0.31367076  0.50991323  0.72962793     0.07020
C497        C  0.32415795  0.54563252  0.74086438    -0.15130
C498        C  0.32133637  0.54678113  0.76454369    -0.15130
C499        C  0.30832197  0.51228063  0.77744872     0.07020
C500        C  0.29825213  0.47667523  0.76620274    -0.15130
H501        H  0.29322708  0.44762505  0.73451396     0.11010
H502        H  0.33504140  0.57281631  0.73137757     0.11010
H503        H  0.32834926  0.57446521  0.77266810     0.11010
H504        H  0.28750354  0.44943863  0.77562619     0.11010
C505        C  0.43013954  0.47097751  0.75902362    -0.15130
C506        C  0.39669507  0.45681929  0.74509292     0.07020
C507        C  0.36253152  0.42236965  0.75179279    -0.15130
C508        C  0.36177893  0.40237444  0.77158971    -0.15130
C509        C  0.39502817  0.41624925  0.78554831     0.07020
C510        C  0.42924909  0.45097061  0.77915096    -0.15130
H511        H  0.45694329  0.49719069  0.75429221     0.11010
H512        H  0.33614586  0.41022454  0.74151793     0.11010
H513        H  0.33489018  0.37595818  0.77597644     0.11010
H514        H  0.45540117  0.46249353  0.78960003     0.11010
C515        C  0.13711239  0.45188056  0.72314328    -0.15130
C516        C  0.13058262  0.41319130  0.71974837     0.07020
C517        C  0.14366706  0.39650840  0.73640062    -0.15130
C518        C  0.16344975  0.41793703  0.75563596    -0.15130
C519        C  0.17031396  0.45660065  0.75915003     0.07020
C520        C  0.15635623  0.47325715  0.74289907    -0.15130
H521        H  0.12723817  0.46549565  0.71059062     0.11010
H522        H  0.13926835  0.36693419  0.73440837     0.11010
H523        H  0.17301316  0.40379043  0.76803989     0.11010
H524        H  0.16082455  0.50277048  0.74529458     0.11010
C525        C  0.24915496  0.47196040  0.63291527    -0.15130
C526        C  0.27140560  0.45273682  0.63653120     0.07020
C527        C  0.25214948  0.41142092  0.63588308    -0.15130
C528        C  0.21118906  0.38999427  0.63506887    -0.15130
C529        C  0.18882489  0.40943571  0.63455225     0.07020
C530        C  0.20807506  0.45040899  0.63187845    -0.15130
H531        H  0.26313356  0.50380714  0.63322038     0.11010
H532        H  0.26829471  0.39566849  0.63852217     0.11010
H533        H  0.19685907  0.35829483  0.63705880     0.11010
H534        H  0.19146447  0.46603476  0.63162126     0.11010
C535        C  0.43701621  0.36929011  0.66987566    -0.15130
C536        C  0.47758556  0.38897292  0.66572523     0.07020
C537        C  0.49587959  0.42817819  0.65827352    -0.15130
C538        C  0.47489888  0.44828324  0.65642283    -0.15130
C539        C  0.43517964  0.43008497  0.66253560     0.07020
C540        C  0.41591546  0.38995777  0.66856583    -0.15130
H541        H  0.42211848  0.33864100  0.67492183     0.11010
H542        H  0.02675842  0.44357698  0.65388846     0.11010
H543        H  0.49050030  0.47897967  0.65144914     0.11010
H544        H  0.38530533  0.37529741  0.67349965     0.11010
C545        C  0.01675247  0.20379025  0.70746561    -0.15130
C546        C  0.49766182  0.22576881  0.70244928     0.07020
C547        C  0.45648391  0.20606234  0.70160681    -0.15130
C548        C  0.43544634  0.16496514  0.70225239    -0.15130
C549        C  0.45511012  0.14287068  0.70401038     0.07020
C550        C  0.49558069  0.16255391  0.70824944    -0.15130
H551        H  0.04848178  0.21810051  0.70836520     0.11010
H552        H  0.44079785  0.22194964  0.69787903     0.11010
H553        H  0.40409094  0.15033681  0.69913928     0.11010
H554        H  0.01139765  0.14620344  0.70956745     0.11010
C555        C  0.49664865  0.37809442  0.55852674    -0.15130
C556        C  0.45990064  0.34479292  0.55404491     0.07020
C557        C  0.44530762  0.31341195  0.56945056    -0.15130
C558        C  0.46693169  0.31475930  0.58860282    -0.15130
C559        C  0.50361598  0.34785362  0.59330231     0.07020
C560        C  0.01812175  0.37986515  0.57821572    -0.15130
H561        H  0.50860744  0.40279304  0.54689676     0.11010
H562        H  0.41734198  0.28727677  0.56649004     0.11010
H563        H  0.45439080  0.28973226  0.60000517     0.11010
H564        H  0.04602978  0.40585482  0.58149626     0.11010
C565        C  0.16092387  0.15424320  0.42987163    -0.15130
C566        C  0.15856362  0.17397192  0.41042965     0.07020
C567        C  0.13717894  0.19434042  0.41160261    -0.15130
C568        C  0.11989843  0.19654379  0.43189148    -0.15130
C569        C  0.12374111  0.17870478  0.45177171     0.07020
C570        C  0.14377673  0.15679032  0.45048793    -0.15130
H571        H  0.17713969  0.13824330  0.42933137     0.11010
H572        H  0.13420401  0.20915803  0.39672455     0.11010
H573        H  0.10420738  0.21308865  0.43206725     0.11010
H574        H  0.14707958  0.14254624  0.46551400     0.11010
C575        C  0.49561656  0.03486670  0.51622799    -0.15130
C576        C  0.47738819  0.05604857  0.50833298     0.07020
C577        C  0.43693778  0.03595448  0.50379394    -0.15130
C578        C  0.41596355  0.49470606  0.50515877    -0.15130
C579        C  0.43521940  0.47354458  0.51155751     0.07020
C580        C  0.47475139  0.49423767  0.51804183    -0.15130
H581        H  0.02639631  0.04977424  0.52090330     0.11010
H582        H  0.42208068  0.05189797  0.49837452     0.11010
H583        H  0.38550202  0.47934475  0.49986816     0.11010
H584        H  0.49027038  0.47880837  0.52323893     0.11010
C585        C  0.20934809  0.22648354  0.54084028    -0.15130
C586        C  0.18827374  0.24671784  0.53760552     0.07020
C587        C  0.20879047  0.28807784  0.53671889    -0.15130
C588        C  0.24979630  0.30856205  0.53612852    -0.15130
C589        C  0.27094973  0.28792596  0.53610620     0.07020
C590        C  0.25047457  0.24696308  0.54006150    -0.15130
H591        H  0.19417262  0.19459685  0.54138246     0.11010
H592        H  0.19301956  0.30427738  0.53428581     0.11010
H593        H  0.26454972  0.34002411  0.53315706     0.11010
H594        H  0.26594286  0.23020066  0.54023145     0.11010
C595        C  0.45427237  0.21733652  0.47097420    -0.15130
C596        C  0.49537106  0.23734675  0.46966404     0.07020
C597        C  0.51474429  0.27768598  0.46393731    -0.15130
C598        C  0.49411929  0.29876758  0.46328929    -0.15130
C599        C  0.45394921  0.27964537  0.46825994     0.07020
C600        C  0.43375234  0.23839148  0.47036828    -0.15130
H601        H  0.43840627  0.18632254  0.47519485     0.11010
H602        H  0.54642470  0.29389861  0.46256223     0.11010
H603        H  0.51029393  0.33050926  0.46160434     0.11010
H604        H  0.40256181  0.22295819  0.47395450     0.11010
C605        C  0.09345393  0.27884579  0.57421096    -0.15130
C606        C  0.05773950  0.26050713  0.56224922     0.07020
C607        C  0.02235601  0.24424498  0.57450040    -0.15130
C608        C  0.02265944  0.24585243  0.59819948    -0.15130
C609        C  0.05835334  0.26437775  0.61017397     0.07020
C610        C  0.09375642  0.28086049  0.59793338    -0.15130
H611        H  0.12121272  0.29088378  0.56527921     0.11010
H612        H  0.49433865  0.22918527  0.56581781     0.11010
H613        H  0.49486265  0.23357781  0.60710057     0.11010
H614        H  0.12173363  0.29608926  0.60664958     0.11010
C615        C  0.01731370  0.10441537  0.59452235    -0.15130
C616        C  0.50428947  0.12481089  0.58034320     0.07020
C617        C  0.46889640  0.12438663  0.58593355    -0.15130
C618        C  0.44692205  0.10402127  0.60485075    -0.15130
C619        C  0.45991789  0.08404016  0.61919986     0.07020
C620        C  0.49556950  0.08467981  0.61402551    -0.15130
H621        H  0.04412730  0.10380540  0.59058327     0.11010
H622        H  0.45744607  0.13926866  0.57535214     0.11010
H623        H  0.41993723  0.10453091  0.60847018     0.11010
H624        H  0.50632436  0.06952808  0.62490051     0.11010
O625        O  0.10805224  0.66648485  0.49158669    -0.83580
C626        C  0.05729390  0.75102521  0.53791813     0.95780
O627        O  0.08921302  0.75952176  0.52794508    -0.72690
O628        O  0.13973958  0.74011970  0.51201316    -0.76290
Al629      Al  0.09194386  0.73457718  0.50085075     1.48980
C630        C  0.14760051  0.72578198  0.52904108     0.91030
O631        O  0.04898008  0.63690397  0.54878027    -0.82510
O632        O  0.48683208  0.62093371  0.51234463    -0.76060
Al633      Al  0.07778598  0.65532714  0.51992070     1.90120
O634        O  0.51314165  0.66625685  0.54953305    -0.75130
O635        O  0.50078701  0.68531312  0.48804373    -0.74980
O636        O  0.02483909  0.72894589  0.52815914    -0.80640
O637        O  0.05294785  0.74300194  0.48622392    -0.78850
O638        O  0.05971478  0.68797371  0.51316487    -1.14980
O639        O  0.09645086  0.71027636  0.47407001    -0.74180
C640        C  0.10826727  0.68505254  0.47359400     0.96540
C641        C  0.02428052  0.64427036  0.55873725     0.92940
Al642      Al  0.51030393  0.67621704  0.51882522     1.55560
O643        O  0.12186461  0.69351436  0.53722524    -0.78800
C644        C  0.51782365  0.72019520  0.48063195     0.97110
C645        C  0.50133036  0.59913518  0.50727736     0.91990
O646        O  0.03759984  0.61336815  0.50410191    -0.84120
O647        O  0.10916267  0.90785855  0.68106253    -0.83580
C648        C  0.05848556  0.77364003  0.63452106     0.95780
O649        O  0.09054840  0.79664015  0.64424210    -0.72690
O650        O  0.14102021  0.86572776  0.65958069    -0.76290
Al651      Al  0.09400797  0.82431661  0.67146064     1.48980
C652        C  0.14810502  0.88859133  0.64301933     0.91030
O653        O  0.04811972  0.87932687  0.62483653    -0.82510
O654        O  0.48746602  0.83371567  0.66098875    -0.76060
Al655      Al  0.07787831  0.88913384  0.65329789     1.90120
O656        O  0.51381451  0.81488103  0.62350667    -0.75130
O657        O  0.50280524  0.78352799  0.68488443    -0.74980
O658        O  0.02627749  0.76378984  0.64457301    -0.80640
O659        O  0.05546135  0.77751017  0.68644332    -0.78850
O660        O  0.06091226  0.83890708  0.65971740    -1.14980
O661        O  0.09996676  0.85347900  0.69847820    -0.74180
C662        C  0.11172104  0.89027975  0.69877094     0.96540
C663        C  0.02400234  0.84783608  0.61467569     0.92940
Al664      Al  0.51152248  0.80197273  0.65418512     1.55560
O665        O  0.12166012  0.89517765  0.63536363    -0.78800
C666        C  0.52013910  0.76536586  0.69198580     0.97110
C667        C  0.50165475  0.86940353  0.66658420     0.91990
O668        O  0.03784754  0.89058508  0.66999095    -0.84120
O669        O  0.45464882  0.56147359  0.65745528    -0.83580
C670        C  0.32336555  0.00964325  0.70537821     0.95780
O671        O  0.34517096  0.54200034  0.69546332    -0.72690
O672        O  0.41273358  0.59422941  0.67886328    -0.76290
Al673      Al  0.37158322  0.54667574  0.66771895     1.48980
C674        C  0.43535082  0.60194817  0.69548354     0.91030
O675        O  0.42727642  0.50343302  0.71441874    -0.82510
O676        O  0.38147631  0.94076511  0.67123155    -0.76060
Al677      Al  0.43701673  0.53154865  0.68568671     1.90120
O678        O  0.36494673  0.95984979  0.71200790    -0.75130
O679        O  0.32979905  0.95710548  0.65227405    -0.74980
O680        O  0.31394016  0.97704961  0.69554141    -0.80640
O681        O  0.32374211  0.00945420  0.65330517    -0.78850
O682        O  0.38687338  0.01330956  0.67849768    -1.14980
O683        O  0.40017852  0.55339844  0.64032284    -0.74180
C684        C  0.43689587  0.56461646  0.63994126     0.96540
C685        C  0.39664581  0.97506992  0.72285112     0.92940
Al686      Al  0.35059433  0.96296755  0.68228266     1.55560
O687        O  0.44230671  0.57582823  0.70320244    -0.78800
C688        C  0.31118674  0.97460840  0.64674729     0.97110
C689        C  0.41771859  0.95537858  0.66751924     0.91990
O690        O  0.44078876  0.99153151  0.67027590    -0.84120
O691        O  0.20960980  0.55797223  0.84859137    -0.83580
C692        C  0.29752727  0.01168753  0.80156450     0.95780
O693        O  0.30467646  0.54330735  0.81171071    -0.72690
O694        O  0.28341977  0.59220621  0.82882895    -0.76290
Al695      Al  0.27913927  0.54439761  0.83916299     1.48980
C696        C  0.26942993  0.60025353  0.81172355     0.91030
O697        O  0.18271043  0.50113461  0.79070703    -0.82510
O698        O  0.16807357  0.93758071  0.82631579    -0.76060
Al699      Al  0.19987885  0.52886831  0.81986706     1.90120
O700        O  0.21292221  0.96602078  0.78939012    -0.75130
O701        O  0.23252086  0.95220671  0.85070303    -0.74980
O702        O  0.27597174  0.97880719  0.81098149    -0.80640
O703        O  0.28900119  0.00565093  0.85315483    -0.78850
O704        O  0.23325548  0.01159711  0.82644790    -1.14980
O705        O  0.25383593  0.54718942  0.86620320    -0.74180
C706        C  0.22768773  0.55784565  0.86671165     0.96540
C707        C  0.19044780  0.97687000  0.78050872     0.92940
Al708      Al  0.22309212  0.96259943  0.82011159     1.56520
O709        O  0.23755118  0.57439106  0.80319144    -0.78800
C710        C  0.26736539  0.96989255  0.85808752     0.97110
C711        C  0.14533204  0.95101619  0.83108775     0.91990
O712        O  0.15829072  0.98707437  0.83497626    -0.84120
O713        O  0.42165680  0.90980064  0.82069835    -0.83580
C714        C  0.34659810  0.78106225  0.87549283     0.95780
O715        O  0.32804777  0.78575939  0.85905080    -0.72690
O716        O  0.33443732  0.85446731  0.85420110    -0.76290
Al717      Al  0.34808236  0.82449823  0.83513573     1.48980
C718        C  0.35249593  0.88816296  0.86264706     0.91030
O719        O  0.43867973  0.88590471  0.88193726    -0.82510
O720        O  0.45498029  0.83352768  0.82694467    -0.76060
Al721      Al  0.42827899  0.89483766  0.85052661     1.90120
O722        O  0.45512371  0.84193439  0.87221643    -0.75130
O723        O  0.38388163  0.76899002  0.83095953    -0.74980
O724        O  0.38206416  0.78941240  0.87412621    -0.80640
O725        O  0.34829328  0.78874447  0.81306734    -0.78850
O726        O  0.39748018  0.84370581  0.84486319    -1.14980
O727        O  0.36284257  0.86207943  0.81097345    -0.74180
C728        C  0.39321374  0.89481290  0.80683393     0.96540
C729        C  0.45531602  0.86580287  0.88667355     0.92940
Al730      Al  0.41685085  0.81110184  0.85028064     1.55560
O731        O  0.38939267  0.90662854  0.86236244    -0.78800
C732        C  0.35827744  0.76309101  0.81634303     0.97110
C733        C  0.48069855  0.86956910  0.82866393     0.91990
O734        O  0.47378191  0.89425763  0.83906473    -0.84120
O735        O  0.16438979  0.65378343  0.01871783    -0.83580
C736        C  0.29345399  0.72629377  0.96446178     0.95780
O737        O  0.28879237  0.74566176  0.98055491    -0.72690
O738        O  0.22070004  0.74070084  0.98535928    -0.76290
Al739      Al  0.25009898  0.72666880  0.00456963     1.48980
C740        C  0.18721410  0.72281741  0.97677930     0.91030
O741        O  0.18914858  0.63569905  0.95787338    -0.82510
O742        O  0.23888303  0.61878261  0.01385238    -0.76060
Al743      Al  0.17958915  0.64652794  0.98912879     1.90120
O744        O  0.23162495  0.61793191  0.96838616    -0.75130
O745        O  0.30406263  0.68915306  0.00973683    -0.74980
O746        O  0.28511795  0.69079238  0.96646246    -0.80640
O747        O  0.28565422  0.72666913  0.02680042    -0.78850
O748        O  0.23047578  0.67686111  0.99514392    -1.14980
O749        O  0.21223062  0.71265764  0.02868323    -0.74180
C750        C  0.17919581  0.68241397  0.03253715     0.96540
C751        C  0.20895238  0.61858828  0.95346033     0.92940
Al752      Al  0.26235408  0.65644090  0.99035330     1.55560
O753        O  0.16866927  0.68582510  0.97693681    -0.78800
C754        C  0.31059320  0.71563263  0.02392312     0.97110
C755        C  0.20288657  0.59334164  0.01187363     0.91990
O756        O  0.17898028  0.60056545  0.00093902    -0.84120
O757        O  0.01574293  0.86433238  0.99110129    -0.83580
C758        C  0.06031352  0.77467935  0.03710334     0.95780
O759        O  0.02920349  0.76747138  0.02653842    -0.72690
O760        O  0.98134548  0.79008055  0.00994103    -0.76290
Al761      Al  0.02927233  0.79451630  0.99951754     1.48980
C762        C  0.47328883  0.80371794  0.02730502     0.91030
O763        O  0.07189937  0.89027488  0.04901105    -0.82510
O764        O  0.13542393  0.90540938  0.01471796    -0.76060
Al765      Al  0.04455933  0.87345939  0.01975284     1.90120
O766        O  0.10511355  0.85828072  0.05076044    -0.75130
O767        O  0.12186697  0.84193514  0.98925912    -0.74980
O768        O  0.09339139  0.79622265  0.02795643    -0.80640
O769        O  0.06864891  0.78542088  0.98549085    -0.78850
O770        O  0.06165597  0.83997063  0.01299067    -1.14980
O771        O  0.02741209  0.82110214  0.97282622    -0.74180
C772        C  0.01648487  0.84708860  0.97272712     0.96540
C773        C  0.09480844  0.88127707  0.05962123     0.92940
Al774      Al  0.11015094  0.84978779  0.01988864     1.55560
O775        O  0.99907299  0.83541427  0.03613764    -0.78800
C776        C  0.10462011  0.80736583  0.98124485     0.97110
C777        C  0.12219822  0.92819919  0.00952653     0.91990
O778        O  0.08651029  0.91504162  0.00479147    -0.84120
O779        O  0.01264704  0.62077537  0.18187886    -0.83580
C780        C  0.05752375  0.75292244  0.13382142     0.95780
O781        O  0.02596104  0.72931183  0.14371645    -0.72690
O782        O  0.97801576  0.66022085  0.15977342    -0.76290
Al783      Al  0.02438612  0.70292555  0.17126053     1.48980
C784        C  0.47133930  0.63675130  0.14351202     0.91030
O785        O  0.07235336  0.64878219  0.12524672    -0.82510
O786        O  0.13275954  0.69763824  0.15936566    -0.76060
Al787      Al  0.04311971  0.63923139  0.15388660     1.90120
O788        O  0.10274862  0.71311877  0.12222771    -0.75130
O789        O  0.11627009  0.74620673  0.18341394    -0.74980
O790        O  0.08996488  0.76401454  0.14381415    -0.80640
O791        O  0.06270020  0.75061715  0.18587703    -0.78850
O792        O  0.05819081  0.68935454  0.15941950    -1.14980
O793        O  0.01994483  0.67505358  0.19859453    -0.74180
C794        C  0.00953514  0.63857817  0.19935491     0.96540
C795        C  0.09396846  0.67995152  0.11406444     0.92940
Al796      Al  0.10664279  0.72722052  0.15288544     1.55560
O797        O  0.99811113  0.63033209  0.13613904    -0.78800
C798        C  0.09832733  0.76341386  0.19108000     0.97110
C799        C  0.12064579  0.66361946  0.16729620     0.91990
O800        O  0.08468755  0.64095229  0.17068529    -0.84120
O801        O  0.16372616  0.46847048  0.15747402    -0.83580
C802        C  0.29409226  0.52259006  0.20650689     0.95780
O803        O  0.27343184  0.48978538  0.19656717    -0.72690
O804        O  0.20699045  0.93469262  0.17978333    -0.76290
Al805      Al  0.24693735  0.48252310  0.16871448     1.48980
C806        C  0.18305861  0.92624557  0.19564855     0.91030
O807        O  0.19124831  0.52286997  0.21562053    -0.82510
O808        O  0.23496481  0.58587403  0.16605036    -0.76060
Al809      Al  0.18069927  0.49666460  0.18636561     1.90120
O810        O  0.24874186  0.57404407  0.20903798    -0.75130
O811        O  0.28989401  0.57087723  0.15179024    -0.74980
O812        O  0.30147155  0.55504763  0.19716964    -0.80640
O813        O  0.29482141  0.51830365  0.15440555    -0.78850
O814        O  0.23069148  0.51574998  0.17845545    -1.14980
O815        O  0.21802130  0.97359619  0.14119761    -0.74180
C816        C  0.18150189  0.46353168  0.14046365     0.96540
C817        C  0.21931983  0.55589200  0.22162570     0.92940
Al818      Al  0.26581849  0.56684887  0.18064642     1.55560
O819        O  0.17487283  0.95167605  0.20285570    -0.78800
C820        C  0.30820569  0.55272417  0.14730326     0.97110
C821        C  0.19850387  0.57262648  0.16767176     0.91990
O822        O  0.17569305  0.53756072  0.17323722    -0.84120
O823        O  0.40976548  0.46865185  0.34872851    -0.83580
C824        C  0.32469160  0.51877917  0.30167547     0.95780
O825        O  0.31725766  0.48670943  0.31116690    -0.72690
O826        O  0.33672916  0.93636162  0.32713380    -0.76290
Al827      Al  0.34119029  0.48357096  0.33852003     1.48980
C828        C  0.35205517  0.92892090  0.31042708     0.91030
O829        O  0.44032866  0.52861876  0.29187519    -0.82510
O830        O  0.45380909  0.59029820  0.32827914    -0.76060
Al831      Al  0.42143406  0.49939031  0.32054590     1.90120
O832        O  0.41021659  0.56382285  0.29063086    -0.75130
O833        O  0.38856114  0.57495334  0.35198813    -0.74980
O834        O  0.34668280  0.55126888  0.31145384    -0.80640
O835        O  0.33158417  0.52183451  0.35321805    -0.78850
O836        O  0.38791982  0.51662574  0.32684828    -1.14980
O837        O  0.36430618  0.97835843  0.36560537    -0.74180
C838        C  0.38963799  0.96673781  0.36634194     0.96540
C839        C  0.43283762  0.55310311  0.28175444     0.92940
Al840      Al  0.39900025  0.56608945  0.32130854     1.55560
O841        O  0.38463650  0.95495221  0.30279975    -0.78800
C842        C  0.35350490  0.55713353  0.35899655     0.97110
C843        C  0.47588311  0.57628656  0.33345818     0.91990
O844        O  0.46218960  0.54004710  0.33686124    -0.84120
O845        O  0.20923166  0.62000694  0.32310813    -0.83580
C846        C  0.28758333  0.74921073  0.37301005     0.95780
O847        O  0.29745232  0.72658329  0.36270980    -0.72690
O848        O  0.28276995  0.65917753  0.34430019    -0.76290
Al849      Al  0.27669247  0.70170664  0.33455388     1.48980
C850        C  0.26897605  0.63724216  0.36116281     0.91030
O851        O  0.18056460  0.64627277  0.38107052    -0.82510
O852        O  0.16440210  0.69557412  0.33547690    -0.76060
Al853      Al  0.19762145  0.63703225  0.35197442     1.90120
O854        O  0.19288964  0.70734989  0.37784457    -0.75130
O855        O  0.23323658  0.74898235  0.31993777    -0.74980
O856        O  0.26314843  0.75836551  0.36437611    -0.80640
O857        O  0.28928255  0.75077284  0.32135319    -0.78850
O858        O  0.22878279  0.68737861  0.34512086    -1.14980
O859        O  0.25504511  0.67496458  0.30669889    -0.74180
C860        C  0.22929490  0.63853228  0.30562869     0.96540
C861        C  0.17899447  0.67576999  0.38886892     0.92940
Al862      Al  0.21476305  0.72441351  0.34894689     1.55560
O863        O  0.23623489  0.63029486  0.36890465    -0.78800
C864        C  0.26899477  0.76571492  0.31481386     0.97110
C865        C  0.14229779  0.65908289  0.33300295     0.91990
O866        O  0.15383293  0.63473219  0.33751486    -0.84120
O867        O  0.45507158  0.86182364  0.51556919    -0.83580
C868        C  0.32379095  0.78557260  0.46751841     0.95780
O869        O  0.34591205  0.77467362  0.47728608    -0.72690
O870        O  0.41338299  0.78803899  0.49412648    -0.76290
Al871      Al  0.37224926  0.79531900  0.50507083     1.48980
C872        C  0.43533937  0.80199131  0.47726929     0.91030
O873        O  0.42759551  0.89236467  0.45835666    -0.82510
O874        O  0.38162530  0.91011228  0.50359926    -0.76060
Al875      Al  0.43744604  0.87427649  0.48717855     1.90120
O876        O  0.36623497  0.87819356  0.46194201    -0.75130
O877        O  0.32892847  0.84226433  0.52097581    -0.74980
O878        O  0.31508220  0.80974510  0.47703669    -0.80640
O879        O  0.32432018  0.78473062  0.51930549    -0.78850
O880        O  0.38734895  0.84368712  0.49458993    -1.14980
O881        O  0.40058176  0.81634113  0.53251406    -0.74180
C882        C  0.43720602  0.84128766  0.53305529     0.96540
C883        C  0.39747365  0.89275987  0.45064155     0.92940
Al884      Al  0.35106573  0.85872137  0.49131725     1.55560
O885        O  0.44254076  0.83501479  0.46969576    -0.78800
C886        C  0.31091411  0.80638683  0.52607333     0.97110
C887        C  0.41809646  0.93136014  0.50630844     0.91990
O888        O  0.44144835  0.91844355  0.50226153    -0.84120
C889        C  0.29806661  0.79497091  0.43074866    -0.15130
C890        C  0.31197270  0.77400387  0.44374089     0.07020
C891        C  0.32068862  0.74701812  0.43283864    -0.15130
C892        C  0.31510232  0.74075985  0.40942087    -0.15130
C893        C  0.30084003  0.76149186  0.39650461     0.07020
C894        C  0.29260946  0.78881525  0.40737122    -0.15130
H895        H  0.29216471  0.81682489  0.43854369     0.11010
H896        H  0.33220723  0.73105200  0.44235798     0.11010
H897        H  0.32081334  0.71881364  0.40156534     0.11010
H898        H  0.28116199  0.80487325  0.39787842     0.11010
C899        C  0.36738304  0.94214553  0.40568346    -0.15130
C900        C  0.39401084  0.94912446  0.38790404     0.07020
C901        C  0.42317958  0.93799653  0.39095657    -0.15130
C902        C  0.42523291  0.91997265  0.41136872    -0.15130
C903        C  0.39769686  0.91222892  0.42881381     0.07020
C904        C  0.36907680  0.92390169  0.42566294    -0.15130
H905        H  0.34458982  0.95026482  0.40410156     0.11010
H906        H  0.44423165  0.44306314  0.37756970     0.11010
H907        H  0.44774752  0.91156647  0.41335055     0.11010
H908        H  0.34771489  0.91909424  0.43882610     0.11010
C909        C  0.35132393  0.86641831  0.30029806    -0.15130
C910        C  0.33158620  0.88828598  0.30165887     0.07020
C911        C  0.29029906  0.86838663  0.30127622    -0.15130
C912        C  0.26911451  0.82734614  0.30263352    -0.15130
C913        C  0.28896217  0.80557314  0.30451641     0.07020
C914        C  0.33012672  0.82526802  0.30169348    -0.15130
H915        H  0.38310510  0.88110578  0.30084102     0.11010
H916        H  0.27450850  0.88481573  0.30232882     0.11010
H917        H  0.23754139  0.81318096  0.30463529     0.11010
H918        H  0.34633601  0.80930469  0.30292058     0.11010
C919        C  0.03874254  0.64061274  0.33767648    -0.15130
C920        C  0.01862387  0.60061395  0.33173008     0.07020
C921        C  0.03931534  0.58332131  0.32180208    -0.15130
C922        C  0.07974674  0.60443315  0.31954993    -0.15130
C923        C  0.10056903  0.64316198  0.32759527     0.07020
C924        C  0.07978838  0.66178275  0.33584366    -0.15130
H925        H  0.02304775  0.65476226  0.34465240     0.11010
H926        H  0.02417331  0.55300101  0.31600886     0.11010
H927        H  0.09501459  0.58954334  0.31296766     0.11010
H928        H  0.09536161  0.69160503  0.34239146     0.11010
C929        C  0.29457901  0.55856540  0.37460003    -0.15130
C930        C  0.33510826  0.57881572  0.36956630     0.07020
C931        C  0.35436261  0.62002879  0.36844568    -0.15130
C932        C  0.33261811  0.63984403  0.36864406    -0.15130
C933        C  0.29142350  0.61884948  0.37017238     0.07020
C934        C  0.27280010  0.57849209  0.37483820    -0.15130
H935        H  0.27889502  0.52674688  0.37577538     0.11010
H936        H  0.38544760  0.63654001  0.36471988     0.11010
H937        H  0.34762455  0.67120611  0.36528646     0.11010
H938        H  0.24111587  0.56173481  0.37605353     0.11010
C939        C  0.29929404  0.48751475  0.24064094    -0.15130
C940        C  0.30545217  0.52264917  0.23040073     0.07020
C941        C  0.31550022  0.55587582  0.24413881    -0.15130
C942        C  0.31936375  0.55397986  0.26763738    -0.15130
C943        C  0.31320206  0.51882618  0.27784744     0.07020
C944        C  0.30313483  0.48561886  0.26413161    -0.15130
H945        H  0.29087483  0.46126418  0.23053509     0.11010
H946        H  0.31935193  0.58307752  0.23683058     0.11010
H947        H  0.32780398  0.58020426  0.27777678     0.11010
H948        H  0.29930377  0.45843197  0.27146103     0.11010
C949        C  0.19679616  0.55525205  0.26218154    -0.15130
C950        C  0.21856057  0.57581169  0.24301819     0.07020
C951        C  0.24138994  0.61708018  0.24425156    -0.15130
C952        C  0.24384296  0.63728429  0.26432660    -0.15130
C953        C  0.22361275  0.61685169  0.28386822     0.07020
C954        C  0.19943302  0.57562546  0.28250486    -0.15130
H955        H  0.17880227  0.52353592  0.26165428     0.11010
H956        H  0.25788136  0.63396711  0.22961721     0.11010
H957        H  0.26226608  0.66896502  0.26461235     0.11010
H958        H  0.18326620  0.55901688  0.29727707     0.11010
C959        C  0.98744230  0.57862683  0.22472108    -0.15130
C960        C  0.99150109  0.61619311  0.22058710     0.07020
C961        C  0.97655794  0.63208307  0.23668848    -0.15130
C962        C  0.45732801  0.61092049  0.25607940    -0.15130
C963        C  0.45285902  0.57331505  0.26033332     0.07020
C964        C  0.46873154  0.55755625  0.24462893    -0.15130
H965        H  0.99879618  0.56564229  0.21261272     0.11010
H966        H  0.97899758  0.66076504  0.23410920     0.11010
H967        H  0.44621347  0.62445600  0.26798146     0.11010
H968        H  0.46614185  0.52890571  0.24754984     0.11010
C969        C  0.40875862  0.63528401  0.13420628    -0.15130
C970        C  0.43070986  0.61541568  0.13496423     0.07020
C971        C  0.41103929  0.57423479  0.13375293    -0.15130
C972        C  0.36995404  0.55324129  0.13490105    -0.15130
C973        C  0.34812505  0.57322729  0.13720964     0.07020
C974        C  0.36779342  0.61439366  0.13518582    -0.15130
H975        H  0.42345215  0.66715571  0.13511502     0.11010
H976        H  0.42734102  0.55832285  0.13455478     0.11010
H977        H  0.35564832  0.52146957  0.13629988     0.11010
H978        H  0.35197481  0.63069193  0.13681328     0.11010
C979        C  0.13689274  0.61693739  0.18578396    -0.15130
C980        C  0.14737497  0.64760297  0.17027603     0.07020
C981        C  0.17756200  0.65600569  0.15441047    -0.15130
C982        C  0.19522696  0.63206835  0.15323476    -0.15130
C983        C  0.18202697  0.59934443  0.16761452     0.07020
C984        C  0.15389222  0.59301455  0.18440246    -0.15130
H985        H  0.11386949  0.61007640  0.19818005     0.11010
H986        H  0.18561679  0.67933201  0.14204579     0.11010
H987        H  0.21774859  0.63803924  0.14065978     0.11010
H988        H  0.14461098  0.56905027  0.19646421     0.11010
C989        C  0.10134054  0.82460450  0.20690534    -0.15130
C990        C  0.12048500  0.80267176  0.20194718     0.07020
C991        C  0.16168820  0.82220915  0.20155465    -0.15130
C992        C  0.18280750  0.86324599  0.20238204    -0.15130
C993        C  0.16314027  0.88533460  0.20392482     0.07020
C994        C  0.12259684  0.86578077  0.20790598    -0.15130
H995        H  0.06959534  0.81036761  0.20751626     0.11010
H996        H  0.17739696  0.80626749  0.19798418     0.11010
H997        H  0.21423693  0.87781520  0.19956180     0.11010
H998        H  0.10683372  0.88220083  0.20914214     0.11010
C999        C  0.02282403  0.74668565  0.07316023    -0.15130
C1000       C  0.05877814  0.76488746  0.06144901     0.07020
C1001       C  0.09389396  0.78110334  0.07397576    -0.15130
C1002       C  0.09320116  0.78013982  0.09762451    -0.15130
C1003       C  0.05738050  0.76154525  0.10940418     0.07020
C1004       C  0.02213434  0.74468367  0.09694746    -0.15130
H1005       H  0.99528977  0.73469073  0.06398435     0.11010
H1006       H  0.12213880  0.79594658  0.06554490     0.11010
H1007       H  0.12092089  0.79283132  0.10664723     0.11010
H1008       H  0.99408071  0.72940087  0.10555096     0.11010
C1009       C  0.10446964  0.92636702  0.09323687    -0.15130
C1010       C  0.11368558  0.90025728  0.08159201     0.07020
C1011       C  0.14514742  0.89548106  0.08969240    -0.15130
C1012       C  0.16744607  0.91685118  0.10836607    -0.15130
C1013       C  0.15846568  0.94295847  0.11995474     0.07020
C1014       C  0.12631598  0.44707757  0.11251315    -0.15130
H1015       H  0.08081495  0.93110138  0.08731231     0.11010
H1016       H  0.15349415  0.87592645  0.08117789     0.11010
H1017       H  0.19151923  0.91249636  0.11397034     0.11010
H1018       H  0.11862846  0.46687218  0.12133121     0.11010
C1019       C  0.16305381  0.71601006  0.06360847    -0.15130
C1020       C  0.15666676  0.68093743  0.05321986     0.07020
C1021       C  0.12754339  0.64486106  0.06221753    -0.15130
C1022       C  0.10602727  0.64401998  0.08163952    -0.15130
C1023       C  0.11269418  0.67927808  0.09209636     0.07020
C1024       C  0.14120668  0.71522313  0.08260398    -0.15130
H1025       H  0.18480069  0.74423639  0.05691318     0.11010
H1026       H  0.12189222  0.61730577  0.05445900     0.11010
H1027       H  0.08467439  0.61590321  0.08863082     0.11010
H1028       H  0.14753912  0.74308517  0.09020489     0.11010
C1029       C  0.12785673  0.72750302  0.96477551    -0.15130
C1030       C  0.16829568  0.74615385  0.96929125     0.07020
C1031       C  0.18868364  0.78749668  0.97160882    -0.15130
C1032       C  0.16832521  0.80883381  0.97262510    -0.15130
C1033       C  0.12718975  0.78930013  0.97119505     0.07020
C1034       C  0.10754043  0.74889504  0.96561354    -0.15130
H1035       H  0.11126909  0.69582971  0.96275563     0.11010
H1036       H  0.21997377  0.80297870  0.97485511     0.11010
H1037       H  0.18445059  0.83988615  0.97680612     0.11010
H1038       H  0.07586172  0.73291009  0.96417434     0.11010
C1039       C  0.14902108  0.53132455  0.02543570    -0.15130
C1040       C  0.18827987  0.55251067  0.01868233     0.07020
C1041       C  0.20775968  0.53218541  0.01115131    -0.15130
C1042       C  0.18686588  0.99116842  0.00842205    -0.15130
C1043       C  0.14639432  0.97078130  0.01276938     0.07020
C1044       C  0.12820409  0.99094081  0.02230261    -0.15130
H1045       H  0.13349701  0.54649985  0.03116942     0.11010
H1046       H  0.23795056  0.54823407  0.00542524     0.11010
H1047       H  0.20161217  0.97582549  0.00176700     0.11010
H1048       H  0.09737996  0.97551703  0.02685342     0.11010
C1049       C  0.37324771  0.71831397  0.03526022    -0.15130
C1050       C  0.35008698  0.73684083  0.03446474     0.07020
C1051       C  0.36846320  0.77797144  0.03749756    -0.15130
C1052       C  0.40964194  0.80046875  0.03815016    -0.15130
C1053       C  0.43264486  0.78195045  0.03587982     0.07020
C1054       C  0.41409951  0.74065402  0.03591928    -0.15130
H1055       H  0.35997395  0.68672873  0.03298966     0.11010
H1056       H  0.35139942  0.79308837  0.03667517     0.11010
H1057       H  0.42332447  0.83229756  0.03785588     0.11010
H1058       H  0.43130480  0.72576225  0.03419794     0.11010
C1059       C  0.29598802  0.73249395  0.90100717    -0.15130
C1060       C  0.32870110  0.76924174  0.89770080     0.07020
C1061       C  0.34807019  0.79387158  0.91636442    -0.15130
C1062       C  0.33583730  0.78098472  0.93848162    -0.15130
C1063       C  0.30483472  0.74306147  0.94185577     0.07020
C1064       C  0.28425433  0.71931597  0.92309351    -0.15130
H1065       H  0.28105283  0.71336618  0.88670152     0.11010
H1066       H  0.37349422  0.82255314  0.91375688     0.11010
H1067       H  0.35161241  0.79960032  0.95279976     0.11010
H1068       H  0.25959053  0.69013770  0.92558961     0.11010
C1069       C  0.00147617  0.85306253  0.90960010    -0.15130
C1070       C  0.47497618  0.86792285  0.90875554     0.07020
C1071       C  0.46459734  0.87919871  0.92925796    -0.15130
C1072       C  0.47904826  0.87377029  0.95019050    -0.15130
C1073       C  0.00371414  0.85665360  0.95089279     0.07020
C1074       C  0.01538145  0.84728519  0.93028844    -0.15130
H1075       H  0.01053214  0.84443612  0.89413513     0.11010
H1076       H  0.44403915  0.89037623  0.92919246     0.11010
H1077       H  0.46965993  0.88143936  0.96585467     0.11010
H1078       H  0.03481928  0.83474427  0.93014406     0.11010
C1079       C  0.19936562  0.59340469  0.88991173    -0.15130
C1080       C  0.21888781  0.57094075  0.88876118     0.07020
C1081       C  0.23120450  0.56162438  0.90912169    -0.15130
C1082       C  0.22564851  0.57546267  0.92993756    -0.15130
C1083       C  0.20796787  0.59955627  0.93121110     0.07020
C1084       C  0.19408938  0.60776970  0.91097802    -0.15130
H1085       H  0.18938759  0.60098033  0.87447045     0.11010
H1086       H  0.24574031  0.54396063  0.90898595     0.11010
H1087       H  0.23642432  0.56805981  0.94513286     0.11010
H1088       H  0.18063805  0.62640572  0.91133352     0.11010
C1089       C  0.33236716  0.65933028  0.80298956    -0.15130
C1090       C  0.29117788  0.64100933  0.80318027     0.07020
C1091       C  0.27301669  0.66443380  0.80156118    -0.15130
C1092       C  0.29577895  0.70567320  0.80267823    -0.15130
C1093       C  0.33678926  0.72367569  0.80560496     0.07020
C1094       C  0.35495332  0.70023122  0.80425060    -0.15130
H1095       H  0.34699594  0.64180264  0.80425886     0.11010
H1096       H  0.24131093  0.65096509  0.80204176     0.11010
H1097       H  0.28096378  0.72300721  0.80394572     0.11010
H1098       H  0.38641965  0.71324081  0.80645568     0.11010
C1099       C  0.08278648  0.94331095  0.81717113    -0.15130
C1100       C  0.10287638  0.92633359  0.82812806     0.07020
C1101       C  0.08257577  0.88636905  0.83403207    -0.15130
C1102       C  0.04169474  0.86503064  0.83127927    -0.15130
C1103       C  0.02142968  0.88347991  0.82215468     0.07020
C1104       C  0.04253806  0.92200181  0.81402879    -0.15130
H1105       H  0.09818207  0.97362831  0.81146764     0.11010
H1106       H  0.09787349  0.87249984  0.84184201     0.11010
H1107       H  0.02566827  0.83550495  0.83814130     0.11010
H1108       H  0.02738470  0.93677189  0.80714472     0.11010
C1109       C  0.32645720  0.96815593  0.87319915    -0.15130
C1110       C  0.28593638  0.94796667  0.86824980     0.07020
C1111       C  0.26657848  0.90667879  0.86752627    -0.15130
C1112       C  0.28809829  0.88653578  0.86856473    -0.15130
C1113       C  0.32940773  0.90729941  0.87018267     0.07020
C1114       C  0.34802361  0.94805011  0.87404448    -0.15130
H1115       H  0.34231361  0.00000605  0.87410367     0.11010
H1116       H  0.23546271  0.89017826  0.86386005     0.11010
H1117       H  0.27267184  0.85497820  0.86586582     0.11010
H1118       H  0.37966463  0.96491289  0.87552182     0.11010
C1119       C  0.30063831  0.97545525  0.74257214    -0.15130
C1120       C  0.31367065  0.00991331  0.72962796     0.07020
C1121       C  0.32415785  0.04563259  0.74086443    -0.15130
C1122       C  0.32133628  0.04678118  0.76454373    -0.15130
C1123       C  0.30832190  0.01228068  0.77744875     0.07020
C1124       C  0.29825207  0.97667529  0.76620277    -0.15130
H1125       H  0.29322699  0.94762512  0.73451397     0.11010
H1126       H  0.33504129  0.07281638  0.73137762     0.11010
H1127       H  0.32834917  0.07446526  0.77266815     0.11010
H1128       H  0.28750348  0.94943868  0.77562621     0.11010
C1129       C  0.43013940  0.97097745  0.75902353    -0.15130
C1130       C  0.39669490  0.95681924  0.74509287     0.07020
C1131       C  0.36253135  0.92236960  0.75179273    -0.15130
C1132       C  0.36177879  0.90237439  0.77158964    -0.15130
C1133       C  0.39502805  0.91624919  0.78554821     0.07020
C1134       C  0.42924898  0.95097055  0.77915086    -0.15130
H1135       H  0.45694314  0.99719063  0.75429212     0.11010
H1136       H  0.33614568  0.91022451  0.74151789     0.11010
H1137       H  0.33489004  0.87595813  0.77597638     0.11010
H1138       H  0.45540108  0.96249345  0.78959991     0.11010
C1139       C  0.13711221  0.95188061  0.72314328    -0.15130
C1140       C  0.13058247  0.91319136  0.71974833     0.07020
C1141       C  0.14366697  0.89650847  0.73640055    -0.15130
C1142       C  0.16344967  0.91793708  0.75563590    -0.15130
C1143       C  0.17031383  0.95660068  0.75915001     0.07020
C1144       C  0.15635605  0.97325717  0.74289908    -0.15130
H1145       H  0.12723794  0.96549571  0.71059064     0.11010
H1146       H  0.13926830  0.86693429  0.73440827     0.11010
H1147       H  0.17301312  0.90379047  0.76803980     0.11010
H1148       H  0.16082433  0.00277048  0.74529462     0.11010
C1149       C  0.24915482  0.97196054  0.63291528    -0.15130
C1150       C  0.27140546  0.95273695  0.63653121     0.07020
C1151       C  0.25214935  0.91142105  0.63588307    -0.15130
C1152       C  0.21118893  0.88999440  0.63506885    -0.15130
C1153       C  0.18882475  0.90943583  0.63455222     0.07020
C1154       C  0.20807492  0.95040912  0.63187845    -0.15130
H1155       H  0.26313341  0.00380727  0.63322041     0.11010
H1156       H  0.26829457  0.89566862  0.63852215     0.11010
H1157       H  0.19685894  0.85829495  0.63705876     0.11010
H1158       H  0.19146432  0.96603488  0.63162126     0.11010
C1159       C  0.43701600  0.86929015  0.66987562    -0.15130
C1160       C  0.47758531  0.88897296  0.66572508     0.07020
C1161       C  0.49587926  0.92817818  0.65827328    -0.15130
C1162       C  0.47489851  0.94828320  0.65642262    -0.15130
C1163       C  0.43517933  0.93008495  0.66253551     0.07020
C1164       C  0.41591522  0.88995779  0.66856582    -0.15130
H1165       H  0.42211833  0.83864108  0.67492186     0.11010
H1166       H  0.02675814  0.94357693  0.65388820     0.11010
H1167       H  0.49049988  0.97897960  0.65144887     0.11010
H1168       H  0.38530513  0.87529744  0.67349974     0.11010
C1169       C  0.01675236  0.70379035  0.70746556    -0.15130
C1170       C  0.49766167  0.72576888  0.70244911     0.07020
C1171       C  0.45648377  0.70606232  0.70160662    -0.15130
C1172       C  0.43544627  0.66496512  0.70225224    -0.15130
C1173       C  0.45511013  0.64287074  0.70401026     0.07020
C1174       C  0.49558070  0.66255406  0.70824934    -0.15130
H1175       H  0.04848167  0.71810066  0.70836516     0.11010
H1176       H  0.44079765  0.72194956  0.69787881     0.11010
H1177       H  0.40409088  0.65033673  0.69913911     0.11010
H1178       H  0.01139763  0.64620358  0.70956743     0.11010
C1179       C  0.49664871  0.87809463  0.55852644    -0.15130
C1180       C  0.45990070  0.84479315  0.55404458     0.07020
C1181       C  0.44530763  0.81341219  0.56945024    -0.15130
C1182       C  0.46693163  0.81475952  0.58860254    -0.15130
C1183       C  0.50361592  0.84785382  0.59330207     0.07020
C1184       C  0.01812174  0.87986529  0.57821555    -0.15130
H1185       H  0.50860756  0.90279325  0.54689646     0.11010
H1186       H  0.41734199  0.78727702  0.56648969     0.11010
H1187       H  0.45439069  0.78973248  0.60000488     0.11010
H1188       H  0.04602976  0.90585497  0.58149612     0.11010
C1189       C  0.16092424  0.65424322  0.42987169    -0.15130
C1190       C  0.15856519  0.67397292  0.41042985     0.07020
C1191       C  0.13718148  0.69434243  0.41160287    -0.15130
C1192       C  0.11990067  0.69654567  0.43189165    -0.15130
C1193       C  0.12374204  0.67870553  0.45177174     0.07020
C1194       C  0.14377681  0.65679023  0.45048791    -0.15130
H1195       H  0.17713926  0.63824251  0.42933138     0.11010
H1196       H  0.13420744  0.70916081  0.39672492     0.11010
H1197       H  0.10421036  0.71309125  0.43206744     0.11010
H1198       H  0.14707867  0.64254528  0.46551387     0.11010
C1199       C  0.49561707  0.53486691  0.51622789    -0.15130
C1200       C  0.47738849  0.55604867  0.50833303     0.07020
C1201       C  0.43693797  0.53595451  0.50379432    -0.15130
C1202       C  0.41596331  0.99470601  0.50515820    -0.15130
C1203       C  0.43521899  0.97354444  0.51155709     0.07020
C1204       C  0.47475082  0.99423744  0.51804174    -0.15130
H1205       H  0.02639677  0.54977441  0.52090298     0.11010
H1206       H  0.42208072  0.55189791  0.49837502     0.11010
H1207       H  0.38550191  0.97934477  0.49986734     0.11010
H1208       H  0.49026968  0.97880805  0.52323895     0.11010
C1209       C  0.20934816  0.72648348  0.54083999    -0.15130
C1210       C  0.18827382  0.74671784  0.53760543     0.07020
C1211       C  0.20879059  0.78807784  0.53671882    -0.15130
C1212       C  0.24979641  0.80856200  0.53612827    -0.15130
C1213       C  0.27094979  0.78792586  0.53610576     0.07020
C1214       C  0.25047463  0.74696297  0.54006103    -0.15130
H1215       H  0.19417266  0.69459679  0.54138213     0.11010
H1216       H  0.19301969  0.80427742  0.53428588     0.11010
H1217       H  0.26454984  0.84002407  0.53315684     0.11010
H1218       H  0.26594288  0.73020050  0.54023084     0.11010
C1219       C  0.45427247  0.71733659  0.47097398    -0.15130
C1220       C  0.49537116  0.73734677  0.46966384     0.07020
C1221       C  0.51474445  0.77768598  0.46393706    -0.15130
C1222       C  0.49411950  0.79876763  0.46328897    -0.15130
C1223       C  0.45394942  0.77964549  0.46825960     0.07020
C1224       C  0.43375249  0.73839160  0.47036798    -0.15130
H1225       H  0.43840633  0.68632263  0.47519466     0.11010
H1226       H  0.54642486  0.79389858  0.46256198     0.11010
H1227       H  0.51029419  0.83050931  0.46160400     0.11010
H1228       H  0.40256196  0.72295837  0.47395419     0.11010
C1229       C  0.09345380  0.77884589  0.57421088    -0.15130
C1230       C  0.05773937  0.76050716  0.56224915     0.07020
C1231       C  0.02235587  0.74424495  0.57450033    -0.15130
C1232       C  0.02265930  0.74585242  0.59819940    -0.15130
C1233       C  0.05835320  0.76437781  0.61017389     0.07020
C1234       C  0.09375628  0.78086060  0.59793331    -0.15130
H1235       H  0.12121259  0.79088393  0.56527914     0.11010
H1236       H  0.49433860  0.72918533  0.56581763     0.11010
H1237       H  0.49486255  0.73357790  0.60710039     0.11010
H1238       H  0.12173348  0.79608943  0.60664951     0.11010
C1239       C  0.01731379  0.60441538  0.59452230    -0.15130
C1240       C  0.50428958  0.62481088  0.58034309     0.07020
C1241       C  0.46889649  0.62438658  0.58593345    -0.15130
C1242       C  0.44692216  0.60402121  0.60485066    -0.15130
C1243       C  0.45991803  0.58404013  0.61919978     0.07020
C1244       C  0.49556966  0.58467981  0.61402541    -0.15130
H1245       H  0.04412741  0.60380547  0.59058323     0.11010
H1246       H  0.45744613  0.63926858  0.57535205     0.11010
H1247       H  0.41993733  0.60453082  0.60847011     0.11010
H1248       H  0.50632455  0.56952812  0.62490041     0.11010
O1249       O  0.60805207  0.16648490  0.49158689    -0.83580
C1250       C  0.55729389  0.25102534  0.53791829     0.95780
O1251       O  0.58921301  0.25952189  0.52794523    -0.72690
O1252       O  0.63973952  0.24011976  0.51201328    -0.76290
Al1253     Al  0.59194378  0.23457728  0.50085090     1.48980
C1254       C  0.64760044  0.22578207  0.52904123     0.91030
O1255       O  0.54898001  0.13690416  0.54878045    -0.82510
O1256       O  0.98683195  0.12093350  0.51234463    -0.76060
Al1257     Al  0.57778587  0.15532725  0.51992090     1.90120
O1258       O  0.01314157  0.16625660  0.54953306    -0.75130
O1259       O  0.00078701  0.18531291  0.48804376    -0.74980
O1260       O  0.52483907  0.22894605  0.52815930    -0.80640
O1261       O  0.55294779  0.24300211  0.48622409    -0.78850
O1262       O  0.55971468  0.18797383  0.51316503    -1.14980
O1263       O  0.59645066  0.21027638  0.47407018    -0.74180
C1264       C  0.60826698  0.18505248  0.47359419     0.96540
C1265       C  0.52428042  0.14427054  0.55873740     0.92940
Al1266     Al  0.01030388  0.17621682  0.51882526     1.55560
O1267       O  0.62186450  0.19351449  0.53722541    -0.78800
C1268       C  0.01782362  0.22019500  0.48063202     0.97110
C1269       C  0.00133018  0.09913490  0.50727739     0.91990
O1270       O  0.53759973  0.11336823  0.50410214    -0.84120
O1271       O  0.60916287  0.40785849  0.68106263    -0.83580
C1272       C  0.55848566  0.27363992  0.63452124     0.95780
O1273       O  0.59054851  0.29664003  0.64424227    -0.72690
O1274       O  0.64102036  0.36572765  0.65958083    -0.76290
Al1275     Al  0.59400811  0.32431652  0.67146080     1.48980
C1276       C  0.64810516  0.38859120  0.64301945     0.91030
O1277       O  0.54811986  0.37932677  0.62483668    -0.82510
O1278       O  0.98746623  0.33371554  0.66098886    -0.76060
Al1279     Al  0.57787848  0.38913376  0.65329802     1.90120
O1280       O  0.01381474  0.31488088  0.62350679    -0.75130
O1281       O  0.00280551  0.28352790  0.68488454    -0.74980
O1282       O  0.52627761  0.26378975  0.64457321    -0.80640
O1283       O  0.55546147  0.27751010  0.68644350    -0.78850
O1284       O  0.56091242  0.33890700  0.65971756    -1.14980
O1285       O  0.59996691  0.35347895  0.69847833    -0.74180
C1286       C  0.61172119  0.39027970  0.69877106     0.96540
C1287       C  0.52400249  0.34783596  0.61467586     0.92940
Al1288     Al  0.01152270  0.30197260  0.65418522     1.55560
O1289       O  0.62166026  0.39517751  0.63536375    -0.78800
C1290       C  0.02013936  0.26536576  0.69198590     0.97110
C1291       C  0.00165496  0.36940339  0.66658435     0.91990
O1292       O  0.53784774  0.39058505  0.66999109    -0.84120
O1293       O  0.95464874  0.06147357  0.65745530    -0.83580
C1294       C  0.82336573  0.50964318  0.70537822     0.95780
O1295       O  0.84517097  0.04200043  0.69546338    -0.72690
O1296       O  0.91273362  0.09422943  0.67886334    -0.76290
Al1297     Al  0.87158319  0.04667580  0.66771900     1.48980
C1298       C  0.93535086  0.10194812  0.69548360     0.91030
O1299       O  0.92727638  0.00343291  0.71441869    -0.82510
O1300       O  0.88147655  0.44076506  0.67123159    -0.76060
Al1301     Al  0.93701666  0.03154859  0.68568670     1.90120
O1302       O  0.86494698  0.45984977  0.71200794    -0.75130
O1303       O  0.82979922  0.45710536  0.65227408    -0.74980
O1304       O  0.81394037  0.47704953  0.69554145    -0.80640
O1305       O  0.82374227  0.50945406  0.65330517    -0.78850
O1306       O  0.88687358  0.51330950  0.67849769    -1.14980
O1307       O  0.90017844  0.05339848  0.64032288    -0.74180
C1308       C  0.93689579  0.06461645  0.63994129     0.96540
C1309       C  0.89664604  0.47506997  0.72285118     0.92940
Al1310     Al  0.85059455  0.46296749  0.68228269     1.55560
O1311       O  0.94230670  0.07582814  0.70320247    -0.78800
C1312       C  0.81118690  0.47460825  0.64674732     0.97110
C1313       C  0.91771884  0.45537853  0.66751932     0.91990
O1314       O  0.94078900  0.49153147  0.67027597    -0.84120
O1315       O  0.70960957  0.05797219  0.84859150    -0.83580
C1316       C  0.79752731  0.51168752  0.80156452     0.95780
O1317       O  0.80467628  0.04330742  0.81171078    -0.72690
O1318       O  0.78341955  0.09220622  0.82882906    -0.76290
Al1319     Al  0.77913907  0.04439762  0.83916307     1.48980
C1320       C  0.76942973  0.10025355  0.81172366     0.91030
O1321       O  0.68271021  0.00113464  0.79070709    -0.82510
O1322       O  0.66807363  0.43758075  0.82631585    -0.76060
Al1323     Al  0.69987864  0.02886831  0.81986716     1.90120
O1324       O  0.71292229  0.46602082  0.78939019    -0.75130
O1325       O  0.73252094  0.45220673  0.85070308    -0.74980
O1326       O  0.77597180  0.47880719  0.81098153    -0.80640
O1327       O  0.78900128  0.50565095  0.85315487    -0.78850
O1328       O  0.73325556  0.51159714  0.82644795    -1.14980
O1329       O  0.75383572  0.04718938  0.86620331    -0.74180
C1330       C  0.72768751  0.05784561  0.86671178     0.96540
C1331       C  0.69044788  0.47687004  0.78050879     0.92940
Al1332     Al  0.72309219  0.46259946  0.82011165     1.56520
O1333       O  0.73755096  0.07439109  0.80319155    -0.78800
C1334       C  0.76736548  0.46989257  0.85808756     0.97110
C1335       C  0.64533210  0.45101623  0.83108779     0.91990
O1336       O  0.65829078  0.48707440  0.83497631    -0.84120
O1337       O  0.92165690  0.40980067  0.82069851    -0.83580
C1338       C  0.84659810  0.28106211  0.87549290     0.95780
O1339       O  0.82804779  0.28575938  0.85905090    -0.72690
O1340       O  0.83443739  0.35446733  0.85420119    -0.76290
Al1341     Al  0.84808243  0.32449824  0.83513583     1.48980
C1342       C  0.85249600  0.38816294  0.86264719     0.91030
O1343       O  0.93867978  0.38590454  0.88193742    -0.82510
O1344       O  0.95498037  0.33352767  0.82694476    -0.76060
Al1345     Al  0.92827906  0.39483760  0.85052677     1.90120
O1346       O  0.95512372  0.34193422  0.87221653    -0.75130
O1347       O  0.88388168  0.26899000  0.83095956    -0.74980
O1348       O  0.88206415  0.28941224  0.87412626    -0.80640
O1349       O  0.84829329  0.28874447  0.81306744    -0.78850
O1350       O  0.89748024  0.34370576  0.84486331    -1.14980
O1351       O  0.86284270  0.36207946  0.81097355    -0.74180
C1352       C  0.89321387  0.39481296  0.80683406     0.96540
C1353       C  0.95531602  0.36580265  0.88667369     0.92940
Al1354     Al  0.91685088  0.31110176  0.85028071     1.55560
O1355       O  0.88939274  0.40662848  0.86236263    -0.78800
C1356       C  0.85827746  0.26309100  0.81634308     0.97110
C1357       C  0.98069864  0.36956909  0.82866406     0.91990
O1358       O  0.97378198  0.39425759  0.83906488    -0.84120
O1359       O  0.66438998  0.15378377  0.01871819    -0.83580
C1360       C  0.79345402  0.22629339  0.96446188     0.95780
O1361       O  0.78879256  0.24566150  0.98055501    -0.72690
O1362       O  0.72070039  0.24070089  0.98535953    -0.76290
Al1363     Al  0.75009931  0.22666877  0.00456983     1.48980
C1364       C  0.68721445  0.22281755  0.97677955     0.91030
O1365       O  0.68914843  0.13569889  0.95787369    -0.82510
O1366       O  0.73888298  0.11878241  0.01385263    -0.76060
Al1367     Al  0.67958920  0.14652800  0.98912912     1.90120
O1368       O  0.73162466  0.11793155  0.96838643    -0.75130
O1369       O  0.80406277  0.18915277  0.00973694    -0.74980
O1370       O  0.78511783  0.19079197  0.96646259    -0.80640
O1371       O  0.78565464  0.22666905  0.02680055    -0.78850
O1372       O  0.73047588  0.17686101  0.99514417    -1.14980
O1373       O  0.71223108  0.21265786  0.02868351    -0.74180
C1374       C  0.67919614  0.18241436  0.03253747     0.96540
C1375       C  0.70895215  0.11858803  0.95346061     0.92940
Al1376     Al  0.76235401  0.15644061  0.99035350     1.55560
O1377       O  0.66866950  0.18582524  0.97693708    -0.78800
C1378       C  0.81059354  0.21563245  0.02392319     0.97110
C1379       C  0.70288647  0.09334152  0.01187395     0.91990
O1380       O  0.67898019  0.10056545  0.00093941    -0.84120
O1381       O  0.51574323  0.36433235  0.99110132    -0.83580
C1382       C  0.56031440  0.27468005  0.03710365     0.95780
O1383       O  0.52920432  0.26747185  0.02653870    -0.72690
O1384       O  0.48134601  0.29008055  0.00994118    -0.76290
Al1385     Al  0.52927297  0.29451653  0.99951775     1.48980
C1386       C  0.97328940  0.30371764  0.02730519     0.91030
O1387       O  0.57189957  0.39027527  0.04901108    -0.82510
O1388       O  0.63542429  0.40540988  0.01471803    -0.76060
Al1389     Al  0.54455960  0.37345958  0.01975288     1.90120
O1390       O  0.60511421  0.35828160  0.05076069    -0.75130
O1391       O  0.62186765  0.34193558  0.98925935    -0.74980
O1392       O  0.59339223  0.29622338  0.02795672    -0.80640
O1393       O  0.56864965  0.28542127  0.98549112    -0.78850
O1394       O  0.56165647  0.33997097  0.01299083    -1.14980
O1395       O  0.52741254  0.32110213  0.97282635    -0.74180
C1396       C  0.51648517  0.34708850  0.97272718     0.96540
C1397       C  0.59480875  0.38127777  0.05962139     0.92940
Al1398     Al  0.61015155  0.34978839  0.01988884     1.55560
O1399       O  0.49907322  0.33541439  0.03613768    -0.78800
C1400       C  0.60462082  0.30736626  0.98124510     0.97110
C1401       C  0.62219846  0.42819955  0.00952654     0.91990
O1402       O  0.58651050  0.41504186  0.00479150    -0.84120
O1403       O  0.51264602  0.12077690  0.18187866    -0.83580
C1404       C  0.55752509  0.25292445  0.13382180     0.95780
O1405       O  0.52596215  0.22931432  0.14371682    -0.72690
O1406       O  0.47801569  0.16022344  0.15977372    -0.76290
Al1407     Al  0.52438650  0.20292760  0.17126081     1.48980
C1408       C  0.97133787  0.13675364  0.14351117     0.91030
O1409       O  0.57235238  0.14878360  0.12524658    -0.82510
O1410       O  0.63275910  0.19763852  0.15936680    -0.76060
Al1411     Al  0.54311870  0.13923284  0.15388642     1.90120
O1412       O  0.60275022  0.21312032  0.12222837    -0.75130
O1413       O  0.61627013  0.24620766  0.18341472    -0.74980
O1414       O  0.58996617  0.26401610  0.14381454    -0.80640
O1415       O  0.56270065  0.25061878  0.18587737    -0.78850
O1416       O  0.55819082  0.18935607  0.15941974    -1.14980
O1417       O  0.51994477  0.17505521  0.19859471    -0.74180
C1418       C  0.50953468  0.13857969  0.19935488     0.96540
C1419       C  0.59396884  0.17995302  0.11406472     0.92940
Al1420     Al  0.60664332  0.22722160  0.15288615     1.55560
O1421       O  0.49811038  0.13033475  0.13613892    -0.78800
C1422       C  0.59832756  0.26341510  0.19108058     0.97110
C1423       C  0.62064439  0.16361918  0.16729674     0.91990
O1424       O  0.58468585  0.14095220  0.17068494    -0.84120
O1425       O  0.66372552  0.96846952  0.15747425    -0.83580
C1426       C  0.79409226  0.02258880  0.20650624     0.95780
O1427       O  0.77343103  0.98978423  0.19656664    -0.72690
O1428       O  0.70699311  0.43469561  0.17978509    -0.76290
Al1429     Al  0.74693671  0.98252317  0.16871399     1.48980
C1430       C  0.68305786  0.42624689  0.19564844     0.91030
O1431       O  0.69124742  0.02287139  0.21562010    -0.82510
O1432       O  0.73496485  0.08587565  0.16605317    -0.76060
Al1433     Al  0.68069894  0.99666484  0.18636551     1.90120
O1434       O  0.74874403  0.07404242  0.20903947    -0.75130
O1435       O  0.78989189  0.07087743  0.15179011    -0.74980
O1436       O  0.80147271  0.05504643  0.19716865    -0.80640
O1437       O  0.79482086  0.01830458  0.15440511    -0.78850
O1438       O  0.73069119  0.01575013  0.17845552    -1.14980
O1439       O  0.71802067  0.47359589  0.14119859    -0.74180
C1440       C  0.68150126  0.96353171  0.14046355     0.96540
C1441       C  0.71932057  0.05589168  0.22162630     0.92940
Al1442     Al  0.76581876  0.06684871  0.18064713     1.55560
O1443       O  0.67486858  0.45167570  0.20285388    -0.78800
C1444       C  0.80820422  0.05272509  0.14730282     0.97110
C1445       C  0.69850346  0.07262676  0.16767258     0.91990
O1446       O  0.67569246  0.03756000  0.17323607    -0.84120
O1447       O  0.90976528  0.96865202  0.34872804    -0.83580
C1448       C  0.82469074  0.01877870  0.30167515     0.95780
O1449       O  0.81725685  0.98670901  0.31116664    -0.72690
O1450       O  0.83672912  0.43636158  0.32713381    -0.76290
Al1451     Al  0.84118974  0.98357072  0.33851974     1.48980
C1452       C  0.85205524  0.42892074  0.31042720     0.91030
O1453       O  0.94032742  0.02861839  0.29187450    -0.82510
O1454       O  0.95380837  0.09029818  0.32827860    -0.76060
Al1455     Al  0.92143340  0.99939020  0.32054533     1.90120
O1456       O  0.91021553  0.06382268  0.29063048    -0.75130
O1457       O  0.88856043  0.07495313  0.35198779    -0.74980
O1458       O  0.84668183  0.05126844  0.31145354    -0.80640
O1459       O  0.83158354  0.02183422  0.35321777    -0.78850
O1460       O  0.88791914  0.01662556  0.32684787    -1.14980
O1461       O  0.86430611  0.47835758  0.36560557    -0.74180
C1462       C  0.88963799  0.46673705  0.36634217     0.96540
C1463       C  0.93283627  0.05310277  0.28175387     0.92940
Al1464     Al  0.89899940  0.06608924  0.32130815     1.55560
O1465       O  0.88463674  0.45495191  0.30280001    -0.78800
C1466       C  0.85350423  0.05713325  0.35899627     0.97110
C1467       C  0.97588256  0.07628662  0.33345741     0.91990
O1468       O  0.96218917  0.04004717  0.33686041    -0.84120
O1469       O  0.70923103  0.12000683  0.32310836    -0.83580
C1470       C  0.78758248  0.24921057  0.37301050     0.95780
O1471       O  0.79745157  0.22658322  0.36271025    -0.72690
O1472       O  0.78276954  0.15917760  0.34430070    -0.76290
Al1473     Al  0.77669195  0.20170655  0.33455432     1.48980
C1474       C  0.76897540  0.13724189  0.36116316     0.91030
O1475       O  0.68056398  0.14627245  0.38107074    -0.82510
O1476       O  0.66440158  0.19557400  0.33547684    -0.76060
Al1477     Al  0.69762075  0.13703200  0.35197464     1.90120
O1478       O  0.69288843  0.20734936  0.37784467    -0.75130
O1479       O  0.73323624  0.24898244  0.31993811    -0.74980
O1480       O  0.76314742  0.25836517  0.36437662    -0.80640
O1481       O  0.78928209  0.25077269  0.32135358    -0.78850
O1482       O  0.72878216  0.18737842  0.34512115    -1.14980
O1483       O  0.75504492  0.17496446  0.30669933    -0.74180
C1484       C  0.72929467  0.13853218  0.30562904     0.96540
C1485       C  0.67899353  0.17576954  0.38886906     0.92940
Al1486     Al  0.71476231  0.22441327  0.34894711     1.55560
O1487       O  0.73623409  0.13029436  0.36890486    -0.78800
C1488       C  0.76899443  0.26571487  0.31481421     0.97110
C1489       C  0.64229715  0.15908276  0.33300300     0.91990
O1490       O  0.65383215  0.13473201  0.33751511    -0.84120
O1491       O  0.95507149  0.36182333  0.51556953    -0.83580
C1492       C  0.82379080  0.28557259  0.46751879     0.95780
O1493       O  0.84591187  0.27467351  0.47728641    -0.72690
O1494       O  0.91338277  0.28803864  0.49412678    -0.76290
Al1495     Al  0.87224912  0.29531877  0.50507117     1.48980
C1496       C  0.93533921  0.30199100  0.47726962     0.91030
O1497       O  0.92759549  0.39236436  0.45835704    -0.82510
O1498       O  0.88162547  0.41011218  0.50359972    -0.76060
Al1499     Al  0.93744602  0.37427623  0.48717891     1.90120
O1500       O  0.86623504  0.37819353  0.46194246    -0.75130
O1501       O  0.82892857  0.34226426  0.52097625    -0.74980
O1502       O  0.81508214  0.30974512  0.47703711    -0.80640
O1503       O  0.82432008  0.28473047  0.51930584    -0.78850
O1504       O  0.88734892  0.34368694  0.49459031    -1.14980
O1505       O  0.90058166  0.31634080  0.53251438    -0.74180
C1506       C  0.93720592  0.34128734  0.53305561     0.96540
C1507       C  0.89747367  0.39275966  0.45064196     0.92940
Al1508     Al  0.85106579  0.35872132  0.49131769     1.55560
O1509       O  0.94254066  0.33501452  0.46969612    -0.78800
C1510       C  0.81091410  0.30638674  0.52607372     0.97110
C1511       C  0.91809664  0.43136001  0.50630882     0.91990
O1512       O  0.94144847  0.41844335  0.50226187    -0.84120
C1513       C  0.79806603  0.29497076  0.43074915    -0.15130
C1514       C  0.81197242  0.27400388  0.44374128     0.07020
C1515       C  0.82068846  0.24701829  0.43283895    -0.15130
C1516       C  0.81510198  0.24076000  0.40942119    -0.15130
C1517       C  0.80083934  0.26149180  0.39650503     0.07020
C1518       C  0.79260865  0.28881505  0.40737172    -0.15130
H1519       H  0.79216403  0.31682463  0.43854424     0.11010
H1520       H  0.83220732  0.23105230  0.44235821     0.11010
H1521       H  0.82081312  0.21881390  0.40156561     0.11010
H1522       H  0.78116093  0.30487289  0.39787898     0.11010
C1523       C  0.86738325  0.44214529  0.40568380    -0.15130
C1524       C  0.89401081  0.44912375  0.38790430     0.07020
C1525       C  0.92317934  0.43799555  0.39095681    -0.15130
C1526       C  0.92523270  0.41997183  0.41136902    -0.15130
C1527       C  0.89769689  0.41222858  0.42881418     0.07020
C1528       C  0.86907705  0.42390164  0.42566333    -0.15130
H1529       H  0.84459022  0.45026485  0.40410192     0.11010
H1530       H  0.94423179  0.94306347  0.37756917     0.11010
H1531       H  0.94774713  0.41156540  0.41335083     0.11010
H1532       H  0.84771535  0.41909456  0.43882656     0.11010
C1533       C  0.85132383  0.36641804  0.30029828    -0.15130
C1534       C  0.83158621  0.38828582  0.30165897     0.07020
C1535       C  0.79029908  0.36838657  0.30127624    -0.15130
C1536       C  0.76911441  0.32734610  0.30263362    -0.15130
C1537       C  0.78896196  0.30557301  0.30451666     0.07020
C1538       C  0.83012651  0.32526776  0.30169377    -0.15130
H1539       H  0.88310500  0.38110543  0.30084129     0.11010
H1540       H  0.77450858  0.38481576  0.30232874     0.11010
H1541       H  0.73754129  0.31318101  0.30463535     0.11010
H1542       H  0.84633572  0.30930436  0.30292096     0.11010
C1543       C  0.53874194  0.14061339  0.33767574    -0.15130
C1544       C  0.51862309  0.10061459  0.33172940     0.07020
C1545       C  0.53931454  0.08332164  0.32180172    -0.15130
C1546       C  0.57974601  0.10443315  0.31954988    -0.15130
C1547       C  0.60056842  0.14316200  0.32759517     0.07020
C1548       C  0.57978785  0.16178309  0.33584321    -0.15130
H1549       H  0.52304722  0.15476314  0.34465145     0.11010
H1550       H  0.52417242  0.05300130  0.31600856     0.11010
H1551       H  0.59501378  0.08954309  0.31296787     0.11010
H1552       H  0.59536115  0.19160541  0.34239096     0.11010
C1553       C  0.79457829  0.05856491  0.37459987    -0.15130
C1554       C  0.83510756  0.07881530  0.36956618     0.07020
C1555       C  0.85436191  0.12002839  0.36844582    -0.15130
C1556       C  0.83261743  0.13984364  0.36864442    -0.15130
C1557       C  0.79142280  0.11884908  0.37017266     0.07020
C1558       C  0.77279938  0.07849161  0.37483823    -0.15130
H1559       H  0.77889428  0.02674637  0.37577503     0.11010
H1560       H  0.88544693  0.13653967  0.36472007     0.11010
H1561       H  0.84762390  0.17120579  0.36528702     0.11010
H1562       H  0.74111515  0.06173431  0.37605350     0.11010
C1563       C  0.79929155  0.98751303  0.24064082    -0.15130
C1564       C  0.80545171  0.02264786  0.23040020     0.07020
C1565       C  0.81550151  0.05587524  0.24413794    -0.15130
C1566       C  0.81936485  0.05397965  0.26763657    -0.15130
C1567       C  0.81320130  0.01882562  0.27784705     0.07020
C1568       C  0.80313222  0.98561752  0.26413155    -0.15130
H1569       H  0.79087091  0.96126189  0.23053526     0.11010
H1570       H  0.81935483  0.08307733  0.23682940     0.11010
H1571       H  0.82780650  0.08020463  0.27777568     0.11010
H1572       H  0.79929960  0.95843025  0.27146126     0.11010
C1573       C  0.69679465  0.05525220  0.26218159    -0.15130
C1574       C  0.71856154  0.07581140  0.24301881     0.07020
C1575       C  0.74139326  0.11707962  0.24425263    -0.15130
C1576       C  0.74384590  0.13728383  0.26432754    -0.15130
C1577       C  0.72361305  0.11685160  0.28386863     0.07020
C1578       C  0.69943124  0.07562570  0.28250483    -0.15130
H1579       H  0.67879890  0.02353630  0.26165394     0.11010
H1580       H  0.75788664  0.13396629  0.22961871     0.11010
H1581       H  0.76227079  0.16896432  0.26461362     0.11010
H1582       H  0.68326238  0.05901742  0.29727663     0.11010
C1583       C  0.48744169  0.07862787  0.22472059    -0.15130
C1584       C  0.49150087  0.11619442  0.22058703     0.07020
C1585       C  0.47655832  0.13208438  0.23668878    -0.15130
C1586       C  0.95732705  0.11092048  0.25607913    -0.15130
C1587       C  0.95285724  0.07331461  0.26033267     0.07020
C1588       C  0.96872835  0.05755519  0.24462777    -0.15130
H1589       H  0.49879518  0.06564336  0.21261197     0.11010
H1590       H  0.47899836  0.16076660  0.23410984     0.11010
H1591       H  0.94621357  0.12445641  0.26798159     0.11010
H1592       H  0.96613795  0.02890428  0.24754837     0.11010
C1593       C  0.90875670  0.13528650  0.13420679    -0.15130
C1594       C  0.93070825  0.11541842  0.13496359     0.07020
C1595       C  0.91103796  0.07423761  0.13375121    -0.15130
C1596       C  0.86995273  0.05324370  0.13489943    -0.15130
C1597       C  0.84812347  0.07322921  0.13720911     0.07020
C1598       C  0.86779151  0.11439574  0.13518635    -0.15130
H1599       H  0.92344999  0.16715812  0.13511636     0.11010
H1600       H  0.92733992  0.05832583  0.13455214     0.11010
H1601       H  0.85564726  0.02147188  0.13629743     0.11010
H1602       H  0.85197268  0.13069366  0.13681469     0.11010
C1603       C  0.63688729  0.11693299  0.18578297    -0.15130
C1604       C  0.64737285  0.14760185  0.17027695     0.07020
C1605       C  0.67756320  0.15600773  0.15441326    -0.15130
C1606       C  0.69522847  0.13207067  0.15323745    -0.15130
C1607       C  0.68202546  0.09934379  0.16761512     0.07020
C1608       C  0.65388693  0.09301032  0.18440124    -0.15130
H1609       H  0.61386152  0.11006950  0.19817769     0.11010
H1610       H  0.68562074  0.17933665  0.14205005     0.11010
H1611       H  0.71775303  0.13804434  0.14066401     0.11010
H1612       H  0.64460313  0.06904365  0.19646151     0.11010
C1613       C  0.60134051  0.32460553  0.20690585    -0.15130
C1614       C  0.62048518  0.30267298  0.20194773     0.07020
C1615       C  0.66168836  0.32221061  0.20155500    -0.15130
C1616       C  0.68280738  0.36324747  0.20238204    -0.15130
C1617       C  0.66313981  0.38533582  0.20392458     0.07020
C1618       C  0.62259649  0.36578179  0.20790607    -0.15130
H1619       H  0.56959531  0.31036842  0.20751699     0.11010
H1620       H  0.67739726  0.30626906  0.19798460     0.11010
H1621       H  0.71423680  0.37781681  0.19956175     0.11010
H1622       H  0.60683312  0.38220160  0.20914224     0.11010
C1623       C  0.52282513  0.24668768  0.07316071    -0.15130
C1624       C  0.55877912  0.26488845  0.06144935     0.07020
C1625       C  0.59389506  0.28110374  0.07397597    -0.15130
C1626       C  0.59320252  0.28014063  0.09762473    -0.15130
C1627       C  0.55738195  0.26154710  0.10940453     0.07020
C1628       C  0.52213566  0.24468615  0.09694794    -0.15130
H1629       H  0.49529080  0.23469326  0.06398494     0.11010
H1630       H  0.62213982  0.29594620  0.06554498     0.11010
H1631       H  0.62092231  0.29283161  0.10664735     0.11010
H1632       H  0.49408207  0.22940416  0.10555155     0.11010
C1633       C  0.60447201  0.42637104  0.09323555    -0.15130
C1634       C  0.61368546  0.40025813  0.08159226     0.07020
C1635       C  0.64514483  0.39547915  0.08969417    -0.15130
C1636       C  0.66744368  0.41684975  0.10836771    -0.15130
C1637       C  0.65846593  0.44296041  0.11995470     0.07020
C1638       C  0.62631446  0.94707651  0.11251354    -0.15130
H1639       H  0.58081932  0.43110762  0.08730982     0.11010
H1640       H  0.65348953  0.37592194  0.08118094     0.11010
H1641       H  0.69151489  0.41249272  0.11397320     0.11010
H1642       H  0.61862629  0.96687035  0.12133194     0.11010
C1643       C  0.66305503  0.21601091  0.06360903    -0.15130
C1644       C  0.65666712  0.18093814  0.05322018     0.07020
C1645       C  0.62754293  0.14486198  0.06221762    -0.15130
C1646       C  0.60602682  0.14402120  0.08163958    -0.15130
C1647       C  0.61269459  0.17927943  0.09209665     0.07020
C1648       C  0.64120796  0.21522430  0.08260452    -0.15130
H1649       H  0.68480256  0.24423711  0.05691394     0.11010
H1650       H  0.62189104  0.11730658  0.05445894     0.11010
H1651       H  0.58467327  0.11590454  0.08863066     0.11010
H1652       H  0.64754110  0.24308642  0.09020560     0.11010
C1653       C  0.62785726  0.22750340  0.96477564    -0.15130
C1654       C  0.66829618  0.24615411  0.96929147     0.07020
C1655       C  0.68868422  0.28749693  0.97160911    -0.15130
C1656       C  0.66832588  0.30883416  0.97262539    -0.15130
C1657       C  0.62719043  0.28930058  0.97119526     0.07020
C1658       C  0.60754106  0.24889551  0.96561367    -0.15130
H1659       H  0.61126956  0.19583011  0.96275570     0.11010
H1660       H  0.71997433  0.30297886  0.97485545     0.11010
H1661       H  0.68445131  0.33988647  0.97680647     0.11010
H1662       H  0.57586236  0.23291065  0.96417439     0.11010
C1663       C  0.64902090  0.03132437  0.02543594    -0.15130
C1664       C  0.68827970  0.05251049  0.01868259     0.07020
C1665       C  0.70775949  0.03218520  0.01115158    -0.15130
C1666       C  0.68686603  0.49116881  0.00842204    -0.15130
C1667       C  0.64639446  0.47078167  0.01276934     0.07020
C1668       C  0.62820417  0.49094113  0.02230255    -0.15130
H1669       H  0.63349684  0.04649967  0.03116966     0.11010
H1670       H  0.73795039  0.04823385  0.00542553     0.11010
H1671       H  0.70161236  0.47582590  0.00176702     0.11010
H1672       H  0.59738004  0.47551732  0.02685334     0.11010
C1673       C  0.87324811  0.21831370  0.03526015    -0.15130
C1674       C  0.85008742  0.23684062  0.03446472     0.07020
C1675       C  0.86846371  0.27797122  0.03749760    -0.15130
C1676       C  0.90964246  0.30046847  0.03815025    -0.15130
C1677       C  0.93264534  0.28195014  0.03587990     0.07020
C1678       C  0.91409991  0.24065370  0.03591926    -0.15130
H1679       H  0.85997431  0.18672848  0.03298953     0.11010
H1680       H  0.85139997  0.29308821  0.03667525     0.11010
H1681       H  0.92332504  0.33229729  0.03785604     0.11010
H1682       H  0.93130516  0.22576188  0.03419790     0.11010
C1683       C  0.79598826  0.23249348  0.90100723    -0.15130
C1684       C  0.82870107  0.26924146  0.89770086     0.07020
C1685       C  0.84806997  0.29387138  0.91636449    -0.15130
C1686       C  0.83583713  0.28098444  0.93848168    -0.15130
C1687       C  0.80483480  0.24306105  0.94185584     0.07020
C1688       C  0.78425463  0.21931543  0.92309357    -0.15130
H1689       H  0.78105324  0.21336564  0.88670157     0.11010
H1690       H  0.87349382  0.32255307  0.91375696     0.11010
H1691       H  0.85161207  0.29960015  0.95279984     0.11010
H1692       H  0.75959102  0.19013704  0.92558965     0.11010
C1693       C  0.50147606  0.35306199  0.90960015    -0.15130
C1694       C  0.97497615  0.36792248  0.90875569     0.07020
C1695       C  0.96459743  0.37919841  0.92925813    -0.15130
C1696       C  0.97904838  0.37376995  0.95019066    -0.15130
C1697       C  0.50371431  0.35665332  0.95089283     0.07020
C1698       C  0.51538138  0.34728466  0.93028848    -0.15130
H1699       H  0.51053189  0.34443542  0.89413518     0.11010
H1700       H  0.94403933  0.39037605  0.92919265     0.11010
H1701       H  0.96966018  0.38143912  0.96585484     0.11010
H1702       H  0.53481909  0.33474359  0.93014410     0.11010
C1703       C  0.69936539  0.09340459  0.88991194    -0.15130
C1704       C  0.71888759  0.07094067  0.88876134     0.07020
C1705       C  0.73120430  0.06162427  0.90912184    -0.15130
C1706       C  0.72564831  0.07546251  0.92993774    -0.15130
C1707       C  0.70796764  0.09955607  0.93121133     0.07020
C1708       C  0.69408915  0.10776955  0.91097827    -0.15130
H1709       H  0.68938734  0.10098027  0.87447068     0.11010
H1710       H  0.74574013  0.04396054  0.90898607     0.11010
H1711       H  0.73642414  0.06805961  0.94513302     0.11010
H1712       H  0.68063780  0.12640555  0.91133379     0.11010
C1713       C  0.83236700  0.15933022  0.80298963    -0.15130
C1714       C  0.79117772  0.14100933  0.80318036     0.07020
C1715       C  0.77301659  0.16443386  0.80156126    -0.15130
C1716       C  0.79577892  0.20567325  0.80267830    -0.15130
C1717       C  0.83678923  0.22367568  0.80560501     0.07020
C1718       C  0.85495322  0.20023116  0.80425066    -0.15130
H1719       H  0.84699574  0.14180253  0.80425894     0.11010
H1720       H  0.74131084  0.15096520  0.80204185     0.11010
H1721       H  0.78096380  0.22300731  0.80394578     0.11010
H1722       H  0.88641955  0.21324069  0.80645573     0.11010
C1723       C  0.58278652  0.44331098  0.81717117    -0.15130
C1724       C  0.60287643  0.42633362  0.82812809     0.07020
C1725       C  0.58257582  0.38636906  0.83403206    -0.15130
C1726       C  0.54169479  0.36503064  0.83127924    -0.15130
C1727       C  0.52142972  0.38347991  0.82215467     0.07020
C1728       C  0.54253811  0.42200184  0.81402882    -0.15130
H1729       H  0.59818211  0.47362837  0.81146771     0.11010
H1730       H  0.59787355  0.37249984  0.84184199     0.11010
H1731       H  0.52566834  0.33550493  0.83814125     0.11010
H1732       H  0.52738474  0.43677191  0.80714476     0.11010
C1733       C  0.82645728  0.46815595  0.87319921    -0.15130
C1734       C  0.78593646  0.44796669  0.86824984     0.07020
C1735       C  0.76657856  0.40667880  0.86752632    -0.15130
C1736       C  0.78809836  0.38653579  0.86856481    -0.15130
C1737       C  0.82940780  0.40729941  0.87018277     0.07020
C1738       C  0.84802368  0.44805011  0.87404457    -0.15130
H1739       H  0.84231369  0.50000606  0.87410372     0.11010
H1740       H  0.73546279  0.39017828  0.86386010     0.11010
H1741       H  0.77267191  0.35497821  0.86586591     0.11010
H1742       H  0.87966470  0.46491289  0.87552191     0.11010
C1743       C  0.80063837  0.47545521  0.74257216    -0.15130
C1744       C  0.81367079  0.50991327  0.72962797     0.07020
C1745       C  0.82415800  0.54563255  0.74086443    -0.15130
C1746       C  0.82133638  0.54678115  0.76454374    -0.15130
C1747       C  0.80832193  0.51228065  0.77744877     0.07020
C1748       C  0.79825207  0.47667525  0.76620279    -0.15130
H1749       H  0.79322704  0.44762507  0.73451400     0.11010
H1750       H  0.83504149  0.57281635  0.73137763     0.11010
H1751       H  0.82834929  0.57446524  0.77266815     0.11010
H1752       H  0.78750344  0.44943863  0.77562623     0.11010
C1753       C  0.93013960  0.47097750  0.75902363    -0.15130
C1754       C  0.89669511  0.45681932  0.74509296     0.07020
C1755       C  0.86253153  0.42236972  0.75179284    -0.15130
C1756       C  0.86177895  0.40237451  0.77158976    -0.15130
C1757       C  0.89502821  0.41624928  0.78554834     0.07020
C1758       C  0.92924915  0.45097060  0.77915097    -0.15130
H1759       H  0.95694337  0.49719065  0.75429220     0.11010
H1760       H  0.83614586  0.41022464  0.74151800     0.11010
H1761       H  0.83489018  0.37595828  0.77597651     0.11010
H1762       H  0.95540125  0.46249348  0.78960002     0.11010
C1763       C  0.63711241  0.45188062  0.72314333    -0.15130
C1764       C  0.63058258  0.41319133  0.71974844     0.07020
C1765       C  0.64366696  0.39650841  0.73640071    -0.15130
C1766       C  0.66344963  0.41793703  0.75563605    -0.15130
C1767       C  0.67031390  0.45660068  0.75915010     0.07020
C1768       C  0.65635623  0.47325721  0.74289912    -0.15130
H1769       H  0.62723823  0.46549573  0.71059064     0.11010
H1770       H  0.63926821  0.36693419  0.73440848     0.11010
H1771       H  0.67301299  0.40379042  0.76804000     0.11010
H1772       H  0.66082460  0.50277056  0.74529462     0.11010
C1773       C  0.74915495  0.47196036  0.63291531    -0.15130
C1774       C  0.77140560  0.45273677  0.63653126     0.07020
C1775       C  0.75214948  0.41142087  0.63588316    -0.15130
C1776       C  0.71118905  0.38999423  0.63506897    -0.15130
C1777       C  0.68882488  0.40943566  0.63455233     0.07020
C1778       C  0.70807505  0.45040894  0.63187851    -0.15130
H1779       H  0.76313356  0.50380709  0.63322041     0.11010
H1780       H  0.76829470  0.39566845  0.63852226     0.11010
H1781       H  0.69685907  0.35829479  0.63705891     0.11010
H1782       H  0.69146447  0.46603471  0.63162130     0.11010
C1783       C  0.93701621  0.36929006  0.66987569    -0.15130
C1784       C  0.97758555  0.38897286  0.66572523     0.07020
C1785       C  0.99587956  0.42817812  0.65827350    -0.15130
C1786       C  0.97489884  0.44828318  0.65642283    -0.15130
C1787       C  0.93517962  0.43008491  0.66253563     0.07020
C1788       C  0.91591545  0.38995772  0.66856587    -0.15130
H1789       H  0.92211849  0.33864095  0.67492186     0.11010
H1790       H  0.52675847  0.44357705  0.65388851     0.11010
H1791       H  0.99050025  0.47897960  0.65144912     0.11010
H1792       H  0.88530533  0.37529736  0.67349972     0.11010
C1793       C  0.51675235  0.20379024  0.70746569    -0.15130
C1794       C  0.99766192  0.22576879  0.70244921     0.07020
C1795       C  0.95648401  0.20606231  0.70160677    -0.15130
C1796       C  0.93544645  0.16496512  0.70225237    -0.15130
C1797       C  0.95511025  0.14287067  0.70401034     0.07020
C1798       C  0.99558082  0.16255392  0.70824938    -0.15130
H1799       H  0.54848166  0.21810050  0.70836529     0.11010
H1800       H  0.94079793  0.22194961  0.69787900     0.11010
H1801       H  0.90409105  0.15033677  0.69913928     0.11010
H1802       H  0.51139751  0.14620343  0.70956751     0.11010
C1803       C  0.99664863  0.37809437  0.55852668    -0.15130
C1804       C  0.95990060  0.34479289  0.55404489     0.07020
C1805       C  0.94530753  0.31341198  0.56945058    -0.15130
C1806       C  0.96693160  0.31475936  0.58860285    -0.15130
C1807       C  0.00361594  0.34785364  0.59330229     0.07020
C1808       C  0.51812176  0.37986517  0.57821577    -0.15130
H1809       H  0.00860746  0.40279295  0.54689668     0.11010
H1810       H  0.91734187  0.28727682  0.56649008     0.11010
H1811       H  0.95439069  0.28973236  0.60000522     0.11010
H1812       H  0.54602976  0.40585487  0.58149634     0.11010
C1813       C  0.66092394  0.15424323  0.42987190    -0.15130
C1814       C  0.65856424  0.17397237  0.41042997     0.07020
C1815       C  0.63718002  0.19434134  0.41160292    -0.15130
C1816       C  0.61989938  0.19654471  0.43189173    -0.15130
C1817       C  0.62374146  0.17870522  0.45177191     0.07020
C1818       C  0.64377668  0.15679036  0.45048815    -0.15130
H1819       H  0.67713938  0.13824295  0.42933164     0.11010
H1820       H  0.63420549  0.20915927  0.39672489     0.11010
H1821       H  0.60420867  0.21308991  0.43206749     0.11010
H1822       H  0.64707907  0.14254591  0.46551419     0.11010
C1823       C  0.99561652  0.03486654  0.51622803    -0.15130
C1824       C  0.97738819  0.05604840  0.50833295     0.07020
C1825       C  0.93693780  0.03595431  0.50379385    -0.15130
C1826       C  0.91596347  0.49470585  0.50515855    -0.15130
C1827       C  0.93521925  0.47354435  0.51155737     0.07020
C1828       C  0.97475118  0.49423742  0.51804181    -0.15130
H1829       H  0.52639637  0.04977439  0.52090321     0.11010
H1830       H  0.92208073  0.05189780  0.49837437     0.11010
H1831       H  0.88550198  0.47934456  0.49986785     0.11010
H1832       H  0.99027012  0.47880809  0.52323898     0.11010
C1833       C  0.70934801  0.22648350  0.54084023    -0.15130
C1834       C  0.68827374  0.24671790  0.53760558     0.07020
C1835       C  0.70879057  0.28807790  0.53671896    -0.15130
C1836       C  0.74979639  0.30856201  0.53612850    -0.15130
C1837       C  0.77094972  0.28792582  0.53610608     0.07020
C1838       C  0.75047450  0.24696293  0.54006135    -0.15130
H1839       H  0.69417247  0.19459681  0.54138239     0.11010
H1840       H  0.69301972  0.30427751  0.53428595     0.11010
H1841       H  0.76454988  0.34002408  0.53315705     0.11010
H1842       H  0.76594271  0.23020043  0.54023124     0.11010
C1843       C  0.95427241  0.21733636  0.47097415    -0.15130
C1844       C  0.99537109  0.23734658  0.46966397     0.07020
C1845       C  0.01474434  0.27768581  0.46393724    -0.15130
C1846       C  0.99411936  0.29876742  0.46328924    -0.15130
C1847       C  0.95394929  0.27964523  0.46825991     0.07020
C1848       C  0.93375240  0.23839133  0.47036825    -0.15130
H1849       H  0.93840631  0.18632238  0.47519480     0.11010
H1850       H  0.04642475  0.29389843  0.46256214     0.11010
H1851       H  0.01029401  0.33050910  0.46160429     0.11010
H1852       H  0.90256188  0.22295806  0.47395448     0.11010
C1853       C  0.59345383  0.27884592  0.57421104    -0.15130
C1854       C  0.55773938  0.26050724  0.56224932     0.07020
C1855       C  0.52235590  0.24424502  0.57450050    -0.15130
C1856       C  0.52265935  0.24585241  0.59819958    -0.15130
C1857       C  0.55835327  0.26437775  0.61017406     0.07020
C1858       C  0.59375633  0.28086056  0.59793346    -0.15130
H1859       H  0.62121261  0.29088397  0.56527929     0.11010
H1860       H  0.99433876  0.22918526  0.56581770     0.11010
H1861       H  0.99486273  0.23357789  0.60710045     0.11010
H1862       H  0.62173355  0.29608935  0.60664966     0.11010
C1863       C  0.51731365  0.10441551  0.59452240    -0.15130
C1864       C  0.00428954  0.12481076  0.58034314     0.07020
C1865       C  0.96889648  0.12438652  0.58593349    -0.15130
C1866       C  0.94692213  0.10402118  0.60485070    -0.15130
C1867       C  0.95991795  0.08404007  0.61919982     0.07020
C1868       C  0.99556956  0.08467970  0.61402546    -0.15130
H1869       H  0.54412725  0.10380556  0.59058332     0.11010
H1870       H  0.95744616  0.13926855  0.57535208     0.11010
H1871       H  0.91993732  0.10453084  0.60847014     0.11010
H1872       H  0.00632441  0.06952797  0.62490047     0.11010
O1873       O  0.60805230  0.66648510  0.49158676    -0.83580
C1874       C  0.55729389  0.75102543  0.53791815     0.95780
O1875       O  0.58921301  0.75952199  0.52794510    -0.72690
O1876       O  0.63973960  0.74011994  0.51201322    -0.76290
Al1877     Al  0.59194387  0.73457741  0.50085078     1.48980
C1878       C  0.64760053  0.72578219  0.52904113     0.91030
O1879       O  0.54898008  0.63690418  0.54878029    -0.82510
O1880       O  0.98683205  0.62093351  0.51234458    -0.76060
Al1881     Al  0.57778601  0.65532737  0.51992075     1.90120
O1882       O  0.01314162  0.66625662  0.54953301    -0.75130
O1883       O  0.00078701  0.68531292  0.48804370    -0.74980
O1884       O  0.52483908  0.72894610  0.52815915    -0.80640
O1885       O  0.55294786  0.74300213  0.48622393    -0.78850
O1886       O  0.55971480  0.68797394  0.51316491    -1.14980
O1887       O  0.59645091  0.71027658  0.47407005    -0.74180
C1888       C  0.60826736  0.68505278  0.47359407     0.96540
C1889       C  0.52428053  0.64427057  0.55873728     0.92940
Al1890     Al  0.01030391  0.67621683  0.51882519     1.55560
O1891       O  0.62186461  0.69351459  0.53722529    -0.78800
C1892       C  0.01782365  0.72019501  0.48063193     0.97110
C1893       C  0.00133030  0.59913496  0.50727732     0.91990
O1894       O  0.53759990  0.61336841  0.50410193    -0.84120
O1895       O  0.60916264  0.90785861  0.68106252    -0.83580
C1896       C  0.55848552  0.77364008  0.63452108     0.95780
O1897       O  0.59054835  0.79664019  0.64424212    -0.72690
O1898       O  0.64102018  0.86572779  0.65958073    -0.76290
Al1899     Al  0.59400792  0.82431666  0.67146066     1.48980
C1900       C  0.64810502  0.88859136  0.64301935     0.91030
O1901       O  0.54811975  0.87932693  0.62483649    -0.82510
O1902       O  0.98746604  0.83371559  0.66098876    -0.76060
Al1903     Al  0.57787831  0.88913390  0.65329787     1.90120
O1904       O  0.01381456  0.81488097  0.62350668    -0.75130
O1905       O  0.00280530  0.78352792  0.68488443    -0.74980
O1906       O  0.52627745  0.76378991  0.64457302    -0.80640
O1907       O  0.55546128  0.77751022  0.68644333    -0.78850
O1908       O  0.56091223  0.83890714  0.65971740    -1.14980
O1909       O  0.59996670  0.85347907  0.69847821    -0.74180
C1910       C  0.61172099  0.89027982  0.69877095     0.96540
C1911       C  0.52400235  0.84783614  0.61467566     0.92940
Al1912     Al  0.01152252  0.80197266  0.65418512     1.55560
O1913       O  0.62166013  0.89517768  0.63536363    -0.78800
C1914       C  0.02013917  0.76536580  0.69198580     0.97110
C1915       C  0.00165476  0.86940343  0.66658423     0.91990
O1916       O  0.53784753  0.89058519  0.66999090    -0.84120
O1917       O  0.95464884  0.56147355  0.65745529    -0.83580
C1918       C  0.82336569  0.00964327  0.70537825     0.95780
O1919       O  0.84517101  0.54200035  0.69546336    -0.72690
O1920       O  0.91273363  0.59422939  0.67886330    -0.76290
Al1921     Al  0.87158325  0.54667572  0.66771897     1.48980
C1922       C  0.93535087  0.60194814  0.69548357     0.91030
O1923       O  0.92727646  0.50343298  0.71441875    -0.82510
O1924       O  0.88147637  0.94076508  0.67123154    -0.76060
Al1925     Al  0.93701675  0.53154862  0.68568673     1.90120
O1926       O  0.86494687  0.95984978  0.71200790    -0.75130
O1927       O  0.82979908  0.95710545  0.65227408    -0.74980
O1928       O  0.81394029  0.97704961  0.69554146    -0.80640
O1929       O  0.82374218  0.00945418  0.65330519    -0.78850
O1930       O  0.88687348  0.01330953  0.67849768    -1.14980
O1931       O  0.90017853  0.55339841  0.64032286    -0.74180
C1932       C  0.93689588  0.56461641  0.63994127     0.96540
C1933       C  0.89664595  0.97506992  0.72285112     0.92940
Al1934     Al  0.85059442  0.96296754  0.68228267     1.55560
O1935       O  0.94230675  0.57582820  0.70320246    -0.78800
C1936       C  0.81118678  0.97460838  0.64674733     0.97110
C1937       C  0.91771865  0.95537853  0.66751923     0.91990
O1938       O  0.94078884  0.99153145  0.67027589    -0.84120
O1939       O  0.70960975  0.55797220  0.84859149    -0.83580
C1940       C  0.79752723  0.01168761  0.80156452     0.95780
O1941       O  0.80467640  0.54330735  0.81171077    -0.72690
O1942       O  0.78341973  0.59220620  0.82882905    -0.76290
Al1943     Al  0.77913923  0.54439759  0.83916307     1.48980
C1944       C  0.76942989  0.60025353  0.81172365     0.91030
O1945       O  0.68271038  0.50113464  0.79070711    -0.82510
O1946       O  0.66807353  0.93758076  0.82631579    -0.76060
Al1947     Al  0.69987880  0.52886831  0.81986716     1.90120
O1948       O  0.71292220  0.96602089  0.78939013    -0.75130
O1949       O  0.73252081  0.95220674  0.85070303    -0.74980
O1950       O  0.77597170  0.97880726  0.81098151    -0.80640
O1951       O  0.78900113  0.00565097  0.85315486    -0.78850
O1952       O  0.73325542  0.01159717  0.82644794    -1.14980
O1953       O  0.75383590  0.54718939  0.86620330    -0.74180
C1954       C  0.72768769  0.55784563  0.86671176     0.96540
C1955       C  0.69044775  0.97687007  0.78050874     0.92940
Al1956     Al  0.72309208  0.96259950  0.82011160     1.56520
O1957       O  0.73755113  0.57439108  0.80319154    -0.78800
C1958       C  0.76736533  0.96989258  0.85808753     0.97110
C1959       C  0.64533199  0.95101622  0.83108776     0.91990
O1960       O  0.65829066  0.98707438  0.83497631    -0.84120
O1961       O  0.92165685  0.90980067  0.82069840    -0.83580
C1962       C  0.84659797  0.78106223  0.87549286     0.95780
O1963       O  0.82804770  0.78575944  0.85905081    -0.72690
O1964       O  0.83443729  0.85446737  0.85420108    -0.76290
Al1965     Al  0.84808236  0.82449827  0.83513575     1.48980
C1966       C  0.85249590  0.88816300  0.86264706     0.91030
O1967       O  0.93867965  0.88590472  0.88193734    -0.82510
O1968       O  0.95498030  0.83352767  0.82694479    -0.76060
Al1969     Al  0.92827897  0.89483768  0.85052668     1.90120
O1970       O  0.95512361  0.84193438  0.87221654    -0.75130
O1971       O  0.88388162  0.76899003  0.83095961    -0.74980
O1972       O  0.88206404  0.78941240  0.87412628    -0.80640
O1973       O  0.84829331  0.78874449  0.81306738    -0.78850
O1974       O  0.89748016  0.84370583  0.84486325    -1.14980
O1975       O  0.86284265  0.86207946  0.81097346    -0.74180
C1976       C  0.89321383  0.89481294  0.80683396     0.96540
C1977       C  0.95531592  0.86580288  0.88667365     0.92940
Al1978     Al  0.91685079  0.81110184  0.85028073     1.55560
O1979       O  0.88939264  0.90662857  0.86236248    -0.78800
C1980       C  0.85827746  0.76309102  0.81634309     0.97110
C1981       C  0.98069857  0.86956910  0.82866406     0.91990
O1982       O  0.97378191  0.89425763  0.83906484    -0.84120
O1983       O  0.66438994  0.65378366  0.01871803    -0.83580
C1984       C  0.79345407  0.72629356  0.96446182     0.95780
O1985       O  0.78879250  0.74566166  0.98055492    -0.72690
O1986       O  0.72070025  0.74070092  0.98535925    -0.76290
Al1987     Al  0.75009913  0.72666889  0.00456965     1.48980
C1988       C  0.68721422  0.72281750  0.97677938     0.91030
O1989       O  0.68914850  0.63569901  0.95787355    -0.82510
O1990       O  0.73888294  0.61878258  0.01385256    -0.76060
Al1991     Al  0.67958917  0.64652802  0.98912896     1.90120
O1992       O  0.73162482  0.61793179  0.96838633    -0.75130
O1993       O  0.80406260  0.68915294  0.00973698    -0.74980
O1994       O  0.78511797  0.69079218  0.96646258    -0.80640
O1995       O  0.78565435  0.72666922  0.02680046    -0.78850
O1996       O  0.73047583  0.67686113  0.99514404    -1.14980
O1997       O  0.71223080  0.71265795  0.02868327    -0.74180
C1998       C  0.67919601  0.68241431  0.03253727     0.96540
C1999       C  0.70895228  0.61858821  0.95346049     0.92940
Al2000     Al  0.76235403  0.65644079  0.99035345     1.55560
O2001       O  0.66866932  0.68582519  0.97693699    -0.78800
C2002       C  0.81059324  0.71563259  0.02392322     0.97110
C2003       C  0.70288647  0.59334164  0.01187382     0.91990
O2004       O  0.67898021  0.60056550  0.00093921    -0.84120
O2005       O  0.51574304  0.86433256  0.99110120    -0.83580
C2006       C  0.56031339  0.77467953  0.03710345     0.95780
O2007       O  0.52920342  0.76747158  0.02653847    -0.72690
O2008       O  0.48134553  0.79008078  0.00994097    -0.76290
Al2009     Al  0.52927241  0.79451650  0.99951756     1.48980
C2010       C  0.97328884  0.80371770  0.02730511     0.91030
O2011       O  0.57189930  0.89027521  0.04901099    -0.82510
O2012       O  0.63542397  0.90540957  0.01471808    -0.76060
Al2013     Al  0.54455936  0.87345963  0.01975277     1.90120
O2014       O  0.60511343  0.85828103  0.05076062    -0.75130
O2015       O  0.62186714  0.84193528  0.98925932    -0.74980
O2016       O  0.59339132  0.79622286  0.02795662    -0.80640
O2017       O  0.56864905  0.78542107  0.98549097    -0.78850
O2018       O  0.56165601  0.83997084  0.01299072    -1.14980
O2019       O  0.52741229  0.82110232  0.97282620    -0.74180
C2020       C  0.51648503  0.84708876  0.97272705     0.96540
C2021       C  0.59480828  0.88127744  0.05962130     0.92940
Al2022     Al  0.61015094  0.84978799  0.01988880     1.55560
O2023       O  0.49907295  0.83541454  0.03613755    -0.78800
C2024       C  0.60462028  0.80736599  0.98124503     0.97110
C2025       C  0.62219830  0.92819937  0.00952655     0.91990
O2026       O  0.58651040  0.91504181  0.00479141    -0.84120
O2027       O  0.51264807  0.62077629  0.18187923    -0.83580
C2028       C  0.55752334  0.75292293  0.13382153     0.95780
O2029       O  0.52596074  0.72931215  0.14371660    -0.72690
O2030       O  0.47801603  0.66022111  0.15977373    -0.76290
Al2031     Al  0.52438624  0.70292610  0.17126073     1.48980
C2032       C  0.97133898  0.63675118  0.14351162     0.91030
O2033       O  0.57235401  0.64878320  0.12524697    -0.82510
O2034       O  0.63276015  0.69763993  0.15936549    -0.76060
Al2035     Al  0.54312050  0.63923234  0.15388691     1.90120
O2036       O  0.60274853  0.71311974  0.12222765    -0.75130
O2037       O  0.61627036  0.74620798  0.18341388    -0.74980
O2038       O  0.58996452  0.76401535  0.14381425    -0.80640
O2039       O  0.56270018  0.75061785  0.18587715    -0.78850
O2040       O  0.55819114  0.68935542  0.15941965    -1.14980
O2041       O  0.51994535  0.67505437  0.19859479    -0.74180
C2042       C  0.50953599  0.63857905  0.19935523     0.96540
C2043       C  0.59396875  0.67995248  0.11406454     0.92940
Al2044     Al  0.60664292  0.72722168  0.15288541     1.55560
O2045       O  0.49811157  0.63033238  0.13613944    -0.78800
C2046       C  0.59832737  0.76341481  0.19108004     0.97110
C2047       C  0.62064686  0.66362136  0.16729623     0.91990
O2048       O  0.58468873  0.64095395  0.17068555    -0.84120
O2049       O  0.66372592  0.46847202  0.15747376    -0.83580
C2050       C  0.79409193  0.52259187  0.20650713     0.95780
O2051       O  0.77343194  0.48978724  0.19656727    -0.72690
O2052       O  0.70699139  0.93469441  0.17978413    -0.76290
Al2053     Al  0.74693721  0.48252434  0.16871462     1.48980
C2054       C  0.68305790  0.92624653  0.19564846     0.91030
O2055       O  0.69124782  0.52287038  0.21562049    -0.82510
O2056       O  0.73496436  0.58587455  0.16604921    -0.76060
Al2057     Al  0.68069879  0.49666566  0.18636546     1.90120
O2058       O  0.74874020  0.57404576  0.20903740    -0.75130
O2059       O  0.78989442  0.57087861  0.15179039    -0.74980
O2060       O  0.80147051  0.55504944  0.19717016    -0.80640
O2061       O  0.79482107  0.51830462  0.15440553    -0.78850
O2062       O  0.73069108  0.51575113  0.17845535    -1.14980
O2063       O  0.71802064  0.97359649  0.14119803    -0.74180
C2064       C  0.68150162  0.46353262  0.14046359     0.96540
C2065       C  0.71931862  0.55589303  0.22162537     0.92940
Al2066     Al  0.76581781  0.56685014  0.18064618     1.55560
O2067       O  0.67487044  0.95167619  0.20285482    -0.78800
C2068       C  0.80820566  0.55272519  0.14730330     0.97110
C2069       C  0.69850362  0.57262760  0.16767132     0.91990
O2070       O  0.67569273  0.53756221  0.17323747    -0.84120
O2071       O  0.90976535  0.46865153  0.34872838    -0.83580
C2072       C  0.82469170  0.51877938  0.30167549     0.95780
O2073       O  0.81725765  0.48670950  0.31116679    -0.72690
O2074       O  0.83672895  0.93636160  0.32713372    -0.76290
Al2075     Al  0.84119013  0.48357072  0.33851993     1.48980
C2076       C  0.85205500  0.92892079  0.31042706     0.91030
O2077       O  0.94032813  0.52861820  0.29187498    -0.82510
O2078       O  0.95380909  0.59029784  0.32827927    -0.76060
Al2079     Al  0.92143381  0.49938987  0.32054573     1.90120
O2080       O  0.91021670  0.56382293  0.29063098    -0.75130
O2081       O  0.88856117  0.57495294  0.35198830    -0.74980
O2082       O  0.84668293  0.55126896  0.31145397    -0.80640
O2083       O  0.83158409  0.52183426  0.35321804    -0.78850
O2084       O  0.88791972  0.51662546  0.32684824    -1.14980
O2085       O  0.86430611  0.97835803  0.36560535    -0.74180
C2086       C  0.88963804  0.96673756  0.36634190     0.96540
C2087       C  0.93283728  0.55310279  0.28175436     0.92940
Al2088     Al  0.89900030  0.56608927  0.32130866     1.55560
O2089       O  0.88463634  0.95495206  0.30279974    -0.78800
C2090       C  0.85350488  0.55713321  0.35899664     0.97110
C2091       C  0.97588312  0.57628613  0.33345808     0.91990
O2092       O  0.96218963  0.54004662  0.33686093    -0.84120
O2093       O  0.70923140  0.62000681  0.32310824    -0.83580
C2094       C  0.78758353  0.74921050  0.37301007     0.95780
O2095       O  0.79745241  0.72658297  0.36270983    -0.72690
O2096       O  0.78276977  0.65917714  0.34430010    -0.76290
Al2097     Al  0.77669240  0.70170640  0.33455391     1.48980
C2098       C  0.76897599  0.63724188  0.36116278     0.91030
O2099       O  0.68056482  0.64627283  0.38107074    -0.82510
O2100       O  0.66440220  0.69557415  0.33547705    -0.76060
Al2101     Al  0.69762143  0.63703217  0.35197459     1.90120
O2102       O  0.69288985  0.70734993  0.37784469    -0.75130
O2103       O  0.73323666  0.74898218  0.31993784    -0.74980
O2104       O  0.76314867  0.75836537  0.36437616    -0.80640
O2105       O  0.78928263  0.75077270  0.32135328    -0.78850
O2106       O  0.72878281  0.68737849  0.34512097    -1.14980
O2107       O  0.75504479  0.67496446  0.30669896    -0.74180
C2108       C  0.72929442  0.63853222  0.30562875     0.96540
C2109       C  0.67899471  0.67577009  0.38886909     0.92940
Al2110     Al  0.71476320  0.72441346  0.34894699     1.55560
O2111       O  0.73623494  0.63029472  0.36890473    -0.78800
C2112       C  0.76899485  0.76571477  0.31481395     0.97110
C2113       C  0.64229780  0.65908292  0.33300317     0.91990
O2114       O  0.65383284  0.63473217  0.33751515    -0.84120
O2115       O  0.95507162  0.86182348  0.51556923    -0.83580
C2116       C  0.82379109  0.78557240  0.46751841     0.95780
O2117       O  0.84591218  0.77467343  0.47728610    -0.72690
O2118       O  0.91338310  0.78803889  0.49412654    -0.76290
Al2119     Al  0.87224932  0.79531887  0.50507086     1.48980
C2120       C  0.93533946  0.80199118  0.47726934     0.91030
O2121       O  0.92759568  0.89236460  0.45835669    -0.82510
O2122       O  0.88162535  0.91011215  0.50359914    -0.76060
Al2123     Al  0.93744613  0.87427636  0.48717858     1.90120
O2124       O  0.86623507  0.87819329  0.46194193    -0.75130
O2125       O  0.82892854  0.84226425  0.52097574    -0.74980
O2126       O  0.81508229  0.80974488  0.47703667    -0.80640
O2127       O  0.82432021  0.78473051  0.51930548    -0.78850
O2128       O  0.88734903  0.84368698  0.49458993    -1.14980
O2129       O  0.90058177  0.81634104  0.53251410    -0.74180
C2130       C  0.93720603  0.84128755  0.53305534     0.96540
C2131       C  0.89747382  0.89275971  0.45064152     0.92940
Al2132     Al  0.85106581  0.85872120  0.49131718     1.55560
O2133       O  0.94254084  0.83501467  0.46969580    -0.78800
C2134       C  0.81091416  0.80638676  0.52607329     0.97110
C2135       C  0.91809649  0.93135999  0.50630841     0.91990
O2136       O  0.94144840  0.91844338  0.50226159    -0.84120
C2137       C  0.79806695  0.79497081  0.43074863    -0.15130
C2138       C  0.81197291  0.77400368  0.44374089     0.07020
C2139       C  0.82068879  0.74701789  0.43283867    -0.15130
C2140       C  0.81510252  0.74075961  0.40942089    -0.15130
C2141       C  0.80084031  0.76149167  0.39650461     0.07020
C2142       C  0.79260984  0.78881515  0.40737120    -0.15130
H2143       H  0.79216509  0.81682483  0.43854364     0.11010
H2144       H  0.83220732  0.73105171  0.44235803     0.11010
H2145       H  0.82081346  0.71881333  0.40156538     0.11010
H2146       H  0.78116246  0.80487321  0.39787837     0.11010
C2147       C  0.86738336  0.94214557  0.40568349    -0.15130
C2148       C  0.89401098  0.94912426  0.38790400     0.07020
C2149       C  0.92317961  0.93799617  0.39095648    -0.15130
C2150       C  0.92523298  0.91997232  0.41136864    -0.15130
C2151       C  0.89769707  0.91222880  0.42881379     0.07020
C2152       C  0.86907716  0.92390177  0.42566298    -0.15130
H2153       H  0.84459024  0.95026501  0.40410165     0.11010
H2154       H  0.94423146  0.44306267  0.37756949     0.11010
H2155       H  0.94774749  0.91156599  0.41335043     0.11010
H2156       H  0.84771538  0.91909451  0.43882619     0.11010
C2157       C  0.85132391  0.86641823  0.30029817    -0.15130
C2158       C  0.83158610  0.88828583  0.30165891     0.07020
C2159       C  0.79029897  0.86838640  0.30127624    -0.15130
C2160       C  0.76911449  0.82734591  0.30263356    -0.15130
C2161       C  0.78896222  0.80557299  0.30451651     0.07020
C2162       C  0.83012678  0.82526794  0.30169362    -0.15130
H2163       H  0.88310508  0.88110577  0.30084115     0.11010
H2164       H  0.77450833  0.88481544  0.30232879     0.11010
H2165       H  0.73754136  0.81318067  0.30463530     0.11010
H2166       H  0.84633612  0.80930468  0.30292076     0.11010
C2167       C  0.53874262  0.64061313  0.33767652    -0.15130
C2168       C  0.51862386  0.60061432  0.33173017     0.07020
C2169       C  0.53931527  0.58332153  0.32180227    -0.15130
C2170       C  0.57974668  0.60443324  0.31955018    -0.15130
C2171       C  0.60056905  0.64316210  0.32759548     0.07020
C2172       C  0.57978847  0.66178301  0.33584376    -0.15130
H2173       H  0.52304788  0.65476275  0.34465237     0.11010
H2174       H  0.52417318  0.55300121  0.31600910     0.11010
H2175       H  0.59501447  0.58954332  0.31296798     0.11010
H2176       H  0.59536176  0.69160532  0.34239152     0.11010
C2177       C  0.79457903  0.55856516  0.37460012    -0.15130
C2178       C  0.83510827  0.57881545  0.36956636     0.07020
C2179       C  0.85436259  0.62002851  0.36844564    -0.15130
C2180       C  0.83261809  0.63984375  0.36864395    -0.15130
C2181       C  0.79142349  0.61884921  0.37017232     0.07020
C2182       C  0.77280011  0.57849185  0.37483823    -0.15130
H2183       H  0.77889505  0.52674665  0.37577554     0.11010
H2184       H  0.88544758  0.63653972  0.36471980     0.11010
H2185       H  0.84762452  0.67120581  0.36528628     0.11010
H2186       H  0.74111588  0.56173458  0.37605360     0.11010
C2187       C  0.79929529  0.48751650  0.24064068    -0.15130
C2188       C  0.80545220  0.52265080  0.23040087     0.07020
C2189       C  0.81549923  0.55587685  0.24413930    -0.15130
C2190       C  0.81936287  0.55398039  0.26763783    -0.15130
C2191       C  0.81320224  0.51882678  0.27784750     0.07020
C2192       C  0.80313614  0.48562010  0.26413131    -0.15130
H2193       H  0.79087693  0.46126639  0.23053455     0.11010
H2194       H  0.81934998  0.58307840  0.23683138     0.11010
H2195       H  0.82780226  0.58020432  0.27777752     0.11010
H2196       H  0.79930599  0.45843335  0.27146042     0.11010
C2197       C  0.69679645  0.55525224  0.26218160    -0.15130
C2198       C  0.71855906  0.57581242  0.24301788     0.07020
C2199       C  0.74138669  0.61708107  0.24425102    -0.15130
C2200       C  0.74384000  0.63728490  0.26432622    -0.15130
C2201       C  0.72361177  0.61685182  0.28386819     0.07020
C2202       C  0.69943354  0.57562537  0.28250505    -0.15130
H2203       H  0.67880395  0.52353595  0.26165451     0.11010
H2204       H  0.75787663  0.63396831  0.22961638     0.11010
H2205       H  0.76226182  0.66896581  0.26461182     0.11010
H2206       H  0.68326826  0.55901643  0.29727754     0.11010
C2207       C  0.48744350  0.57862780  0.22472144    -0.15130
C2208       C  0.49150204  0.61619398  0.22058744     0.07020
C2209       C  0.47655858  0.63208372  0.23668877    -0.15130
C2210       C  0.95732752  0.61092000  0.25607919    -0.15130
C2211       C  0.95285838  0.57331450  0.26033312     0.07020
C2212       C  0.96873049  0.55755543  0.24462864    -0.15130
H2213       H  0.49879763  0.56564343  0.21261313     0.11010
H2214       H  0.47899804  0.66076562  0.23410948     0.11010
H2215       H  0.94621327  0.62445570  0.26798131     0.11010
H2216       H  0.96614066  0.52890483  0.24754955     0.11010
C2217       C  0.90875859  0.63528437  0.13420576    -0.15130
C2218       C  0.93070959  0.61541580  0.13496377     0.07020
C2219       C  0.91103878  0.57423490  0.13375257    -0.15130
C2220       C  0.86995354  0.55324164  0.13490083    -0.15130
C2221       C  0.84812484  0.57322791  0.13720944     0.07020
C2222       C  0.86779340  0.61439426  0.13518543    -0.15130
H2223       H  0.92345232  0.66715608  0.13511441     0.11010
H2224       H  0.92734034  0.55832278  0.13455445     0.11010
H2225       H  0.85564766  0.52146993  0.13629978     0.11010
H2226       H  0.85197499  0.63069273  0.13681288     0.11010
C2227       C  0.63689579  0.61694142  0.18578479    -0.15130
C2228       C  0.64737640  0.64760537  0.17027590     0.07020
C2229       C  0.67756158  0.65600634  0.15440932    -0.15130
C2230       C  0.69522608  0.63206862  0.15323353    -0.15130
C2231       C  0.68202747  0.59934612  0.16761430     0.07020
C2232       C  0.65389488  0.59301823  0.18440327    -0.15130
H2233       H  0.61387392  0.61008183  0.19818164     0.11010
H2234       H  0.68561502  0.67933136  0.14204391     0.11010
H2235       H  0.71774611  0.63803797  0.14065771     0.11010
H2236       H  0.64461487  0.56905511  0.19646574     0.11010
C2237       C  0.60134013  0.82460526  0.20690525    -0.15130
C2238       C  0.62048481  0.80267269  0.20194724     0.07020
C2239       C  0.66168801  0.82221024  0.20155480    -0.15130
C2240       C  0.68280713  0.86324709  0.20238208    -0.15130
C2241       C  0.66313966  0.88533551  0.20392463     0.07020
C2242       C  0.62259623  0.86578152  0.20790576    -0.15130
H2243       H  0.56959492  0.81036822  0.20751612     0.11010
H2244       H  0.67739693  0.80626868  0.19798448     0.11010
H2245       H  0.71423659  0.87781641  0.19956195     0.11010
H2246       H  0.60683293  0.88220142  0.20914181     0.11010
C2247       C  0.52282372  0.74668570  0.07316028    -0.15130
C2248       C  0.55877788  0.76488760  0.06144911     0.07020
C2249       C  0.59389365  0.78110360  0.07397591    -0.15130
C2250       C  0.59320075  0.78014022  0.09762465    -0.15130
C2251       C  0.55738006  0.76154556  0.10940428     0.07020
C2252       C  0.52213393  0.74468377  0.09694752    -0.15130
H2253       H  0.49528949  0.73469066  0.06398436     0.11010
H2254       H  0.62213852  0.79594689  0.06554509     0.11010
H2255       H  0.62092046  0.79283188  0.10664739     0.11010
H2256       H  0.49408029  0.72940090  0.10555099     0.11010
C2257       C  0.60447039  0.92636900  0.09323621    -0.15130
C2258       C  0.61368522  0.90025779  0.08159211     0.07020
C2259       C  0.64514594  0.89548037  0.08969323    -0.15130
C2260       C  0.66744465  0.91685077  0.10836683    -0.15130
C2261       C  0.65846544  0.94295961  0.11995470     0.07020
C2262       C  0.62631620  0.44707881  0.11251279    -0.15130
H2263       H  0.58081660  0.93110433  0.08731109     0.11010
H2264       H  0.65349177  0.87592456  0.08117933     0.11010
H2265       H  0.69151694  0.91249498  0.11397169     0.11010
H2266       H  0.61862910  0.46687401  0.12133053     0.11010
C2267       C  0.66305410  0.71601068  0.06360852    -0.15130
C2268       C  0.65666703  0.68093796  0.05321999     0.07020
C2269       C  0.62754369  0.64486167  0.06221776    -0.15130
C2270       C  0.60602761  0.64402074  0.08163975    -0.15130
C2271       C  0.61269451  0.67927892  0.09209649     0.07020
C2272       C  0.64120699  0.71522389  0.08260403    -0.15130
H2273       H  0.68480097  0.74423695  0.05691316     0.11010
H2274       H  0.62189250  0.61730632  0.05445932     0.11010
H2275       H  0.58467475  0.61590402  0.08863110     0.11010
H2276       H  0.64753944  0.74308599  0.09020487     0.11010
C2277       C  0.62785684  0.72750315  0.96477564    -0.15130
C2278       C  0.66829581  0.74615396  0.96929137     0.07020
C2279       C  0.68868378  0.78749679  0.97160896    -0.15130
C2280       C  0.66832536  0.80883394  0.97262528    -0.15130
C2281       C  0.62718990  0.78930028  0.97119524     0.07020
C2282       C  0.60754056  0.74889518  0.96561371    -0.15130
H2283       H  0.61126920  0.69582985  0.96275575     0.11010
H2284       H  0.71997391  0.80297880  0.97485523     0.11010
H2285       H  0.68445076  0.83988627  0.97680631     0.11010
H2286       H  0.57586185  0.73291025  0.96417452     0.11010
C2287       C  0.64902093  0.53132453  0.02543583    -0.15130
C2288       C  0.68827974  0.55251066  0.01868250     0.07020
C2289       C  0.70775955  0.53218539  0.01115150    -0.15130
C2290       C  0.68686595  0.99116861  0.00842212    -0.15130
C2291       C  0.64639438  0.97078148  0.01276942     0.07020
C2292       C  0.62820413  0.99094096  0.02230266    -0.15130
H2293       H  0.63349685  0.54649984  0.03116954     0.11010
H2294       H  0.73795046  0.54823405  0.00542546     0.11010
H2295       H  0.70161226  0.97582569  0.00176707     0.11010
H2296       H  0.59737999  0.97551716  0.02685344     0.11010
C2297       C  0.87324769  0.71831382  0.03526034    -0.15130
C2298       C  0.85008702  0.73684074  0.03446485     0.07020
C2299       C  0.86846328  0.77797134  0.03749768    -0.15130
C2300       C  0.90964202  0.80046860  0.03815028    -0.15130
C2301       C  0.93264489  0.78195026  0.03587993     0.07020
C2302       C  0.91409949  0.74065382  0.03591939    -0.15130
H2303       H  0.85997390  0.68672858  0.03298977     0.11010
H2304       H  0.85139953  0.79308832  0.03667529     0.11010
H2305       H  0.92332459  0.83229742  0.03785600     0.11010
H2306       H  0.93130475  0.72576202  0.03419805     0.11010
C2307       C  0.79598842  0.73249337  0.90100718    -0.15130
C2308       C  0.82870087  0.76924160  0.89770078     0.07020
C2309       C  0.84806951  0.79387171  0.91636439    -0.15130
C2310       C  0.83583675  0.78098476  0.93848159    -0.15130
C2311       C  0.80483481  0.74306115  0.94185578     0.07020
C2312       C  0.78425488  0.71931532  0.92309352    -0.15130
H2313       H  0.78105363  0.71336538  0.88670153     0.11010
H2314       H  0.87349311  0.82255358  0.91375683     0.11010
H2315       H  0.85161148  0.79960063  0.95279973     0.11010
H2316       H  0.75959154  0.69013678  0.92558961     0.11010
C2317       C  0.50147618  0.85306241  0.90960002    -0.15130
C2318       C  0.97497607  0.86792287  0.90875564     0.07020
C2319       C  0.96459714  0.87919860  0.92925808    -0.15130
C2320       C  0.97904805  0.87377014  0.95019062    -0.15130
C2321       C  0.50371428  0.85665367  0.95089270     0.07020
C2322       C  0.51538149  0.84728511  0.93028836    -0.15130
H2323       H  0.51053208  0.84443589  0.89413506     0.11010
H2324       H  0.94403888  0.89037604  0.92919258     0.11010
H2325       H  0.96965965  0.88143911  0.96585479     0.11010
H2326       H  0.53481926  0.83474412  0.93014400     0.11010
C2327       C  0.69936555  0.59340463  0.88991186    -0.15130
C2328       C  0.71888778  0.57094073  0.88876130     0.07020
C2329       C  0.73120450  0.56162439  0.90912181    -0.15130
C2330       C  0.72564850  0.57546266  0.92993769    -0.15130
C2331       C  0.70796780  0.59955621  0.93121124     0.07020
C2332       C  0.69408929  0.60776963  0.91097817    -0.15130
H2333       H  0.68938749  0.60098025  0.87447059     0.11010
H2334       H  0.74574036  0.54396068  0.90898607     0.11010
H2335       H  0.73642433  0.56805982  0.94513298     0.11010
H2336       H  0.68063792  0.62640560  0.91133367     0.11010
C2337       C  0.83236715  0.65933027  0.80298967    -0.15130
C2338       C  0.79117787  0.64100933  0.80318037     0.07020
C2339       C  0.77301669  0.66443381  0.80156125    -0.15130
C2340       C  0.79577897  0.70567321  0.80267829    -0.15130
C2341       C  0.83678928  0.72367569  0.80560503     0.07020
C2342       C  0.85495332  0.70023121  0.80425070    -0.15130
H2343       H  0.84699592  0.64180262  0.80425900     0.11010
H2344       H  0.74131094  0.65096512  0.80204181     0.11010
H2345       H  0.78096381  0.72300724  0.80394575     0.11010
H2346       H  0.88641965  0.71324079  0.80645579     0.11010
C2347       C  0.58278646  0.94331098  0.81717108    -0.15130
C2348       C  0.60287635  0.92633361  0.82812802     0.07020
C2349       C  0.58257573  0.88636906  0.83403199    -0.15130
C2350       C  0.54169471  0.86503064  0.83127914    -0.15130
C2351       C  0.52142966  0.88347992  0.82215455     0.07020
C2352       C  0.54253806  0.92200184  0.81402870    -0.15130
H2353       H  0.59818206  0.97362837  0.81146762     0.11010
H2354       H  0.59787344  0.87249984  0.84184194     0.11010
H2355       H  0.52566824  0.83550493  0.83814115     0.11010
H2356       H  0.52738471  0.93677192  0.80714462     0.11010
C2357       C  0.82645715  0.96815596  0.87319916    -0.15130
C2358       C  0.78593633  0.94796670  0.86824980     0.07020
C2359       C  0.76657844  0.90667882  0.86752625    -0.15130
C2360       C  0.78809824  0.88653582  0.86856471    -0.15130
C2361       C  0.82940768  0.90729945  0.87018266     0.07020
C2362       C  0.84802356  0.94805014  0.87404448    -0.15130
H2363       H  0.84231355  0.00000607  0.87410369     0.11010
H2364       H  0.73546266  0.89017829  0.86386003     0.11010
H2365       H  0.77267181  0.85497824  0.86586579     0.11010
H2366       H  0.87966458  0.96491293  0.87552183     0.11010
C2367       C  0.80063846  0.97545532  0.74257219    -0.15130
C2368       C  0.81367077  0.00991335  0.72962799     0.07020
C2369       C  0.82415791  0.04563263  0.74086444    -0.15130
C2370       C  0.82133629  0.04678125  0.76454375    -0.15130
C2371       C  0.80832192  0.01228076  0.77744878     0.07020
C2372       C  0.79825217  0.97667537  0.76620282    -0.15130
H2373       H  0.79322720  0.94762519  0.73451404     0.11010
H2374       H  0.83504133  0.07281641  0.73137763     0.11010
H2375       H  0.82834912  0.07446532  0.77266815     0.11010
H2376       H  0.78750360  0.94943878  0.77562627     0.11010
C2377       C  0.93013952  0.97097750  0.75902356    -0.15130
C2378       C  0.89669505  0.95681924  0.74509287     0.07020
C2379       C  0.86253152  0.92236956  0.75179271    -0.15130
C2380       C  0.86177895  0.90237436  0.77158962    -0.15130
C2381       C  0.89502817  0.91624922  0.78554823     0.07020
C2382       C  0.92924908  0.95097060  0.77915090    -0.15130
H2383       H  0.95694324  0.99719071  0.75429217     0.11010
H2384       H  0.83614587  0.91022442  0.74151784     0.11010
H2385       H  0.83489021  0.87595807  0.77597635     0.11010
H2386       H  0.95540115  0.96249355  0.78959998     0.11010
C2387       C  0.63711216  0.95188069  0.72314329    -0.15130
C2388       C  0.63058242  0.91319144  0.71974834     0.07020
C2389       C  0.64366692  0.89650855  0.73640056    -0.15130
C2390       C  0.66344961  0.91793715  0.75563592    -0.15130
C2391       C  0.67031377  0.95660075  0.75915003     0.07020
C2392       C  0.65635600  0.97325725  0.74289910    -0.15130
H2393       H  0.62723790  0.96549579  0.71059065     0.11010
H2394       H  0.63926824  0.86693436  0.73440829     0.11010
H2395       H  0.67301306  0.90379055  0.76803982     0.11010
H2396       H  0.66082428  0.00277056  0.74529464     0.11010
C2397       C  0.74915486  0.97196053  0.63291533    -0.15130
C2398       C  0.77140548  0.95273693  0.63653126     0.07020
C2399       C  0.75214935  0.91142103  0.63588313    -0.15130
C2400       C  0.71118893  0.88999439  0.63506890    -0.15130
C2401       C  0.68882476  0.90943584  0.63455227     0.07020
C2402       C  0.70807496  0.95040913  0.63187849    -0.15130
H2403       H  0.76313347  0.00380727  0.63322045     0.11010
H2404       H  0.76829456  0.89566858  0.63852222     0.11010
H2405       H  0.69685893  0.85829495  0.63705882     0.11010
H2406       H  0.69146438  0.96603491  0.63162128     0.11010
C2407       C  0.93701602  0.86929008  0.66987562    -0.15130
C2408       C  0.97758533  0.88897288  0.66572509     0.07020
C2409       C  0.99587930  0.92817810  0.65827329    -0.15130
C2410       C  0.97489857  0.94828313  0.65642262    -0.15130
C2411       C  0.93517938  0.93008489  0.66253550     0.07020
C2412       C  0.91591525  0.88995773  0.66856581    -0.15130
H2413       H  0.92211833  0.83864100  0.67492186     0.11010
H2414       H  0.52675810  0.94357703  0.65388817     0.11010
H2415       H  0.99049994  0.97897953  0.65144887     0.11010
H2416       H  0.88530516  0.87529739  0.67349972     0.11010
C2417       C  0.51675228  0.70379039  0.70746555    -0.15130
C2418       C  0.99766176  0.72576884  0.70244912     0.07020
C2419       C  0.95648385  0.70606229  0.70160666    -0.15130
C2420       C  0.93544634  0.66496510  0.70225228    -0.15130
C2421       C  0.95511019  0.64287070  0.70401029     0.07020
C2422       C  0.99558077  0.66255402  0.70824934    -0.15130
H2423       H  0.54848159  0.71810071  0.70836517     0.11010
H2424       H  0.94079773  0.72194954  0.69787885     0.11010
H2425       H  0.90409094  0.65033671  0.69913917     0.11010
H2426       H  0.51139757  0.64620364  0.70956744     0.11010
C2427       C  0.99664870  0.87809454  0.55852648    -0.15130
C2428       C  0.95990068  0.84479307  0.55404463     0.07020
C2429       C  0.94530757  0.81341214  0.56945031    -0.15130
C2430       C  0.96693158  0.81475949  0.58860261    -0.15130
C2431       C  0.00361589  0.84785377  0.59330212     0.07020
C2432       C  0.51812176  0.87986537  0.57821551    -0.15130
H2433       H  0.00860756  0.90279314  0.54689648     0.11010
H2434       H  0.91734192  0.78727698  0.56648978     0.11010
H2435       H  0.95439063  0.78973247  0.60000498     0.11010
H2436       H  0.54602975  0.90585506  0.58149610     0.11010
C2437       C  0.66092435  0.65424335  0.42987185    -0.15130
C2438       C  0.65856545  0.67397312  0.41043000     0.07020
C2439       C  0.63718185  0.69434274  0.41160299    -0.15130
C2440       C  0.61990099  0.69654602  0.43189174    -0.15130
C2441       C  0.62374220  0.67870578  0.45177184     0.07020
C2442       C  0.64377688  0.65679039  0.45048805    -0.15130
H2443       H  0.67713928  0.63824255  0.42933157     0.11010
H2444       H  0.63420791  0.70916118  0.39672503     0.11010
H2445       H  0.60421076  0.71309168  0.43206751     0.11010
H2446       H  0.64707861  0.64254537  0.46551401     0.11010
C2447       C  0.99561689  0.53486666  0.51622791    -0.15130
C2448       C  0.97738839  0.55604845  0.50833296     0.07020
C2449       C  0.93693791  0.53595431  0.50379414    -0.15130
C2450       C  0.91596333  0.99470584  0.50515811    -0.15130
C2451       C  0.93521899  0.97354428  0.51155706     0.07020
C2452       C  0.97475078  0.99423728  0.51804178    -0.15130
H2453       H  0.52639699  0.54977468  0.52090287     0.11010
H2454       H  0.92208071  0.55189773  0.49837478     0.11010
H2455       H  0.88550195  0.97934460  0.49986720     0.11010
H2456       H  0.99026961  0.97880790  0.52323905     0.11010
C2457       C  0.70934813  0.72648355  0.54083997    -0.15130
C2458       C  0.68827386  0.74671798  0.53760544     0.07020
C2459       C  0.70879070  0.78807799  0.53671882    -0.15130
C2460       C  0.74979653  0.80856206  0.53612824    -0.15130
C2461       C  0.77094983  0.78792585  0.53610571     0.07020
C2462       C  0.75047461  0.74696296  0.54006098    -0.15130
H2463       H  0.69417257  0.69459686  0.54138212     0.11010
H2464       H  0.69301986  0.80427762  0.53428589     0.11010
H2465       H  0.76455001  0.84002414  0.53315681     0.11010
H2466       H  0.76594280  0.73020044  0.54023078     0.11010
C2467       C  0.95427248  0.71733643  0.47097398    -0.15130
C2468       C  0.99537117  0.73734659  0.46966382     0.07020
C2469       C  0.01474447  0.77768580  0.46393704    -0.15130
C2470       C  0.99411954  0.79876747  0.46328898    -0.15130
C2471       C  0.95394947  0.77964535  0.46825964     0.07020
C2472       C  0.93375253  0.73839146  0.47036801    -0.15130
H2473       H  0.93840634  0.68632247  0.47519467     0.11010
H2474       H  0.04642488  0.79389838  0.46256195     0.11010
H2475       H  0.01029424  0.83050915  0.46160401     0.11010
H2476       H  0.90256200  0.72295824  0.47395423     0.11010
C2477       C  0.59345377  0.77884604  0.57421090    -0.15130
C2478       C  0.55773934  0.76050734  0.56224917     0.07020
C2479       C  0.52235585  0.74424510  0.57450034    -0.15130
C2480       C  0.52265926  0.74585252  0.59819942    -0.15130
C2481       C  0.55835316  0.76437789  0.61017391     0.07020
C2482       C  0.59375625  0.78086070  0.59793333    -0.15130
H2483       H  0.62121257  0.79088410  0.56527916     0.11010
H2484       H  0.99433862  0.72918516  0.56581762     0.11010
H2485       H  0.99486259  0.73357783  0.60710038     0.11010
H2486       H  0.62173345  0.79608952  0.60664953     0.11010
C2487       C  0.51731378  0.60441552  0.59452229    -0.15130
C2488       C  0.00428957  0.62481069  0.58034306     0.07020
C2489       C  0.96889647  0.62438639  0.58593341    -0.15130
C2490       C  0.94692215  0.60402106  0.60485064    -0.15130
C2491       C  0.95991804  0.58404003  0.61919978     0.07020
C2492       C  0.99556967  0.58467972  0.61402543    -0.15130
H2493       H  0.54412740  0.60380559  0.59058321     0.11010
H2494       H  0.95744609  0.63926835  0.57535198     0.11010
H2495       H  0.91993731  0.60453067  0.60847007     0.11010
H2496       H  0.00632458  0.56952806  0.62490045     0.11010
loop_ 
_geom_bond_atom_site_label_1 
_geom_bond_atom_site_label_2 
_geom_bond_distance 
_geom_bond_site_symmetry_2 
_ccdc_geom_bond_type 
O1           C16   1.279       .  A
O1           Al9   1.963       .  S
C2           O12   1.268       .  A
C2            O3   1.265       .  A
C2          C606   1.473       .  S
O3           Al5   1.891       .  S
O4            C6   1.255       .  A
O4           Al5   1.887       .  S
Al5          O13   1.909       .  S
Al5          O15   1.884       .  S
Al5          O14   1.782       .  S
C6           O19   1.261       .  A
C6          C586   1.474       .  S
O7           C17   1.272       .  A
O7           Al9   1.966       .  S
O8           C21   1.262       .  A
O8          Al18   1.920       .  S
Al9          O22   1.867       .  S
Al9          O19   1.924       .  S
Al9          O14   1.772       .  S
O10        C1265   1.255       .  A
O10         Al18   1.860       .  S
O11          C20   1.263       .  A
O11         Al18   1.913       .  S
O12       Al1266   1.921       .  S
O13        C1268   1.260       .  A
O14       Al1266   1.782       .  S
O15          C16   1.271       .  A
C16         C569   1.486       .  S
C17        O1258   1.255       .  A
C17        C1864   1.490       .  S
Al18       O1260   1.921       .  S
Al18       O1262   1.782       .  S
C20        O1261   1.260       .  A
C20         C596   1.482       .  S
C21        O1270   1.257       .  A
C21         C576   1.470       .  S
O22        C1269   1.257       .  A
O23          C38   1.276       .  A
O23         Al31   1.951       .  S
C24          O34   1.267       .  A
C24          O25   1.264       .  A
C24         C609   1.473       .  S
O25         Al27   1.893       .  S
O26          C28   1.256       .  A
O26         Al27   1.890       .  S
Al27         O35   1.921       .  S
Al27         O37   1.895       .  S
Al27         O36   1.783       .  S
C28          O41   1.261       .  A
C28         C529   1.474       .  S
O29          C39   1.271       .  A
O29         Al31   1.963       .  S
O30          C43   1.261       .  A
O30         Al40   1.920       .  S
Al31         O44   1.867       .  S
Al31         O41   1.920       .  S
Al31         O36   1.772       .  S
O32        C1287   1.256       .  A
O32         Al40   1.862       .  S
O33          C42   1.263       .  A
O33         Al40   1.910       .  S
O34       Al1288   1.919       .  S
O35        C1290   1.262       .  A
O36       Al1288   1.784       .  S
O37          C38   1.273       .  A
C38         C516   1.487       .  S
C39        O1280   1.256       .  A
C39        C1807   1.486       .  S
Al40       O1282   1.919       .  S
Al40       O1284   1.784       .  S
C42        O1283   1.262       .  A
C42         C546   1.486       .  S
C43        O1292   1.256       .  A
C43         C536   1.469       .  S
O44        C1291   1.256       .  A
O45          C60   1.279       .  A
O45         Al53   1.950       .  S
C46          O56   1.272       .  A
C46         O671   1.268       .  A
C46         C496   1.474       .  S
O47         C670   1.268       .  A
O47         Al49   1.888       .  S
O48          C50   1.250       .  A
O48         Al49   1.879       .  S
Al49         O59   1.902       .  S
Al49        O681   1.913       .  S
Al49        O682   1.788       .  S
C50          O63   1.257       .  A
C50         C549   1.476       .  S
O51         C685   1.268   1_545  A
O51         Al53   1.947       .  S
O52          C65   1.260       .  A
O52         Al62   1.904       .  S
Al53         O63   1.927       .  S
Al53        O690   1.865   1_545  S
Al53        O682   1.776       .  S
O54          C61   1.253       .  A
O54         Al62   1.855       .  S
O55          C64   1.256       .  A
O55         Al62   1.906       .  S
O56         Al62   1.926       .  S
O57          C64   1.255       .  A
O57        Al673   1.913       .  S
O58         Al62   1.786       .  S
O58        Al673   1.788       .  S
O58        Al677   1.776       .  S
O59          C60   1.278       .  A
C60         C619   1.484       .  S
C61         O675   1.268       .  A
C61         C506   1.488       .  S
C64         C526   1.485       .  S
C65          O66   1.257       .  A
C65         C539   1.472       .  S
O66        Al677   1.865       .  S
O67          C82   1.278       .  A
O67         Al75   1.960       .  S
C68          O78   1.266       .  A
C68         O693   1.268       .  A
C68         C499   1.474       .  S
O69         C692   1.268       .  A
O69         Al71   1.906       .  S
O70          C72   1.254       .  A
O70         Al71   1.886       .  S
Al71         O81   1.900       .  S
Al71        O703   1.914       .  S
Al71        O704   1.778       .  S
C72          O85   1.261       .  A
C72         C466   1.476       .  S
O73         C707   1.271   1_545  A
O73         Al75   1.958       .  S
O74          C87   1.260       .  A
O74         Al84   1.911       .  S
Al75         O85   1.930       .  S
Al75        O712   1.870   1_545  S
Al75        O704   1.774       .  S
O76          C83   1.257       .  A
O76         Al84   1.866       .  S
O77          C86   1.264       .  A
O77         Al84   1.917       .  S
O78         Al84   1.916       .  S
O79          C86   1.261       .  A
O79        Al695   1.914       .  S
O80         Al84   1.785       .  S
O80        Al695   1.778       .  S
O80        Al699   1.774       .  S
O81          C82   1.274       .  A
C82         C456   1.490       .  S
C83         O697   1.271       .  A
C83         C519   1.485       .  S
C86         C486   1.487       .  S
C87          O88   1.258       .  A
C87         C476   1.465       .  S
O88        Al699   1.870       .  S
O89         C104   1.266       .  A
O89         Al97   1.904       .  S
C90         O100   1.260       .  A
C90          O91   1.272       .  A
C90         C436   1.445       .  S
O91         Al93   1.927       .  S
O92          C94   1.248       .  A
O92         Al93   1.869       .  S
Al93        O101   1.901       .  S
Al93        O103   1.916       .  S
Al93        O102   1.787       .  S
C94         O107   1.257       .  A
C94         C489   1.487       .  S
O95         C105   1.267       .  A
O95         Al97   1.956       .  S
O96         C109   1.269       .  A
O96        Al106   1.895       .  S
Al97        O110   1.908       .  S
Al97        O107   1.915       .  S
Al97        O102   1.783       .  S
O98         C105   1.254       .  A
O98        Al106   1.891       .  S
O99         C108   1.250       .  A
O99        Al106   1.888       .  S
O100       Al106   1.844       .  S
O101        C108   1.250       .  A
O102       Al106   1.793       .  S
O103        C104   1.271       .  A
C104        C509   1.486       .  S
C105        C446   1.488       .  S
C108        C469   1.482       .  S
C109        O110   1.271       .  A
C109       C1727   1.458       .  S
O111        C126   1.266       .  A
O111       Al119   1.900   1_554  S
C112        O122   1.261       .  A
C112        O113   1.274       .  A
C112        C439   1.451       .  S
O113       Al115   1.931   1_556  S
O114        C116   1.248       .  A
O114       Al115   1.870   1_556  S
Al115       O123   1.905       .  S
Al115       O125   1.924       .  S
Al115       O124   1.788   1_554  S
C116        O129   1.257       .  A
C116        C406   1.488       .  S
O117        C127   1.267       .  A
O117       Al119   1.958       .  S
O118        C131   1.269       .  A
O118       Al128   1.895   1_554  S
Al119       O132   1.908   1_556  S
Al119       O129   1.915       .  S
Al119       O124   1.782       .  S
O120        C127   1.254       .  A
O120       Al128   1.894       .  S
O121        C130   1.249       .  A
O121       Al128   1.882   1_554  S
O122       Al128   1.842       .  S
O123        C130   1.251       .  A
O124       Al128   1.793       .  S
O125        C126   1.273       .  A
C126        C396   1.483       .  S
C127        C459   1.491       .  S
C130        C426   1.482       .  S
C131        O132   1.271       .  A
C131        C416   1.459       .  S
O133        C148   1.277       .  A
O133       Al141   1.957   1_556  S
C134        O144   1.266       .  A
C134        O135   1.267       .  A
C134        C376   1.474       .  S
O135       Al137   1.905   1_554  S
O136       C1386   1.257       .  A
O136       Al137   1.893   1_654  S
Al137       O145   1.920       .  S
Al137       O147   1.900       .  S
Al137       O146   1.780   1_556  S
C138       O1384   1.257       .  A
C138       O1399   1.261       .  A
C138        C429   1.476       .  S
O139        C149   1.271       .  A
O139       Al141   1.958       .  S
O140        C153   1.261       .  A
O140       Al150   1.916       .  S
Al141       O154   1.869       .  S
Al141       O151   1.926   1_455  S
Al141       O146   1.772       .  S
O142        C149   1.257       .  A
O142       Al150   1.869       .  S
O143        C152   1.264       .  A
O143       Al150   1.915   1_556  S
O144       Al150   1.916       .  S
O145        C152   1.262       .  A
O146       Al150   1.784       .  S
O147        C148   1.274       .  A
C148        C449   1.488       .  S
C149        C386   1.490       .  S
O151       C1386   1.261       .  A
C152        C409   1.489       .  S
C153        O154   1.258       .  A
C153        C419   1.465       .  S
O155        C170   1.275       .  A
O155       Al163   1.950       .  S
C156        O166   1.265       .  A
C156        O157   1.264       .  A
C156        C379   1.474       .  S
O157       Al159   1.902       .  S
O158       C1408   1.256       .  A
O158       Al159   1.886   1_655  S
Al159       O167   1.925       .  S
Al159       O169   1.899       .  S
Al159       O168   1.782       .  S
C160       O1406   1.256       .  A
C160       O1421   1.262       .  A
C160        C346   1.473       .  S
O161        C171   1.273       .  A
O161       Al163   1.963       .  S
O162        C175   1.259       .  A
O162       Al172   1.910       .  S
Al163       O176   1.871       .  S
Al163       O173   1.922   1_455  S
Al163       O168   1.770       .  S
O164        C171   1.256       .  A
O164       Al172   1.865       .  S
O165        C174   1.263       .  A
O165       Al172   1.904       .  S
O166       Al172   1.914       .  S
O167        C174   1.264       .  A
O168       Al172   1.783       .  S
O169        C170   1.272       .  A
C170        C336   1.488   1_455  S
C171        C399   1.488       .  S
O173       C1408   1.262       .  A
C174        C366   1.482       .  S
C175        O176   1.257       .  A
C175        C356   1.462       .  S
O177        C192   1.282       .  A
O177       Al185   1.950       .  S
C178        O188   1.275       .  A
C178        O179   1.270   1_545  A
C178        C316   1.471       .  S
O179       Al181   1.881       .  S
O180        C182   1.244       .  A
O180       Al805   1.869       .  S
Al181       O189   1.898   1_565  S
Al181       O804   1.869       .  S
Al181       O815   1.903       .  S
Al181       O190   1.786   1_565  S
C182        O195   1.251       .  A
C182        C369   1.473       .  S
O183        C193   1.266       .  A
O183       Al185   1.935   1_545  S
O184        C197   1.258       .  A
O184       Al194   1.897       .  S
Al185       O198   1.863   1_565  S
Al185       O819   1.916       .  S
Al185       O190   1.777   1_565  S
O186        C193   1.255       .  A
O186       Al194   1.865       .  S
O187        C196   1.252       .  A
O187       Al194   1.906       .  S
O188       Al194   1.926       .  S
O189        C196   1.249       .  A
O190       Al194   1.786       .  S
O191        C816   1.281       .  A
O191       Al805   1.903       .  S
C192        O815   1.281       .  A
C192       C1013   1.481       .  S
C193        C326   1.482       .  S
O195       Al809   1.916       .  S
C196        C349   1.484       .  S
C197        O198   1.256       .  A
C197        C359   1.464       .  S
O199        C838   1.278       .  A
O199       Al207   1.963       .  S
C200        O210   1.266       .  A
C200        O201   1.265   1_545  A
C200        C319   1.470       .  S
O201       Al203   1.892       .  S
O202        C204   1.253       .  A
O202       Al827   1.879       .  S
Al203       O211   1.907   1_565  S
Al203       O826   1.879       .  S
Al203       O837   1.888       .  S
Al203       O212   1.779   1_565  S
C204        O217   1.261       .  A
C204        C286   1.472       .  S
O205        C215   1.272       .  A
O205       Al207   1.965   1_545  S
O206        C219   1.260       .  A
O206       Al216   1.914       .  S
Al207       O220   1.869   1_565  S
Al207       O841   1.926       .  S
Al207       O212   1.773   1_565  S
O208        C215   1.257       .  A
O208       Al216   1.865       .  S
O209        C218   1.264       .  A
O209       Al216   1.914       .  S
O210       Al216   1.919       .  S
O211        C218   1.259       .  A
O212       Al216   1.785       .  S
O213        C214   1.271       .  A
O213       Al827   1.888       .  S
C214        O823   1.278       .  A
C214        C276   1.490       .  S
C215        C339   1.488       .  S
O217       Al831   1.926       .  S
C218        C306   1.482       .  S
C219        O220   1.257       .  A
C219       C1544   1.466       .  S
O221        C236   1.280       .  A
O221       Al229   1.950       .  S
C222        O232   1.274       .  A
C222        O223   1.271       .  A
C222        C269   1.468       .  S
O223       Al225   1.886       .  S
O224        C226   1.247       .  A
O224       Al225   1.872       .  S
Al225       O233   1.891       .  S
Al225       O235   1.900       .  S
Al225       O234   1.781       .  S
C226        O239   1.255       .  A
C226        C309   1.473       .  S
O227        C237   1.263       .  A
O227       Al229   1.928       .  S
O228        C241   1.260       .  A
O228       Al238   1.896       .  S
Al229       O242   1.870       .  S
Al229       O239   1.926       .  S
Al229       O234   1.777       .  S
O230        C237   1.256       .  A
O230       Al238   1.871       .  S
O231        C240   1.255       .  A
O231       Al238   1.916       .  S
O232       Al238   1.922       .  S
O233        C240   1.249       .  A
O234       Al238   1.786       .  S
O235        C236   1.278       .  A
C236        C329   1.485       .  S
C237        C566   1.479       .  S
C240        C289   1.484       .  S
C241        O242   1.259       .  A
C241        C299   1.467       .  S
O243        C258   1.280       .  A
O243       Al251   1.953       .  S
C244        O254   1.273       .  A
C244        O245   1.269       .  A
C244        C266   1.470       .  S
O245       Al247   1.885       .  S
O246        C248   1.248       .  A
O246       Al247   1.872       .  S
Al247       O255   1.901       .  S
Al247       O257   1.898       .  S
Al247       O256   1.786       .  S
C248        O261   1.256       .  A
C248        C599   1.474       .  S
O249        C259   1.266       .  A
O249       Al251   1.943       .  S
O250        C263   1.260       .  A
O250       Al260   1.900       .  S
Al251       O264   1.868       .  S
Al251       O261   1.927       .  S
Al251       O256   1.778       .  S
O252        C259   1.255       .  A
O252       Al260   1.862       .  S
O253        C262   1.256       .  A
O253       Al260   1.911       .  S
O254       Al260   1.921       .  S
O255        C262   1.252       .  A
O256       Al260   1.785       .  S
O257        C258   1.278       .  A
C258        C556   1.484       .  S
C259        C279   1.488       .  S
C262        C589   1.484       .  S
C263        O264   1.258       .  A
C263        C579   1.471       .  S
C265        C266   1.405       .  A
C265        C270   1.391       .  A
C265        H271   1.083       .  S
C266        C267   1.404       .  A
C267        C268   1.394       .  A
C267        H272   1.083       .  S
C268        C269   1.405       .  A
C268        H273   1.083       .  S
C269        C270   1.403       .  A
C270        H274   1.083       .  S
C275        C276   1.403       .  A
C275        C280   1.391       .  A
C275        H281   1.082       .  S
C276        C277   1.412       .  A
C277        C278   1.412       .  A
C277        H906   1.083       .  S
C278        C279   1.407       .  A
C278        H283   1.082       .  S
C279        C280   1.407       .  A
C280        H284   1.084       .  S
H282        C901   1.083       .  S
C285        C286   1.400       .  A
C285        C290   1.401       .  A
C285        H291   1.084       .  S
C286        C287   1.407       .  A
C287        C288   1.398       .  A
C287        H292   1.083       .  S
C288        C289   1.402       .  A
C288        H293   1.083       .  S
C289        C290   1.412       .  A
C290        H294   1.083       .  S
C295        C296   1.402       .  A
C295        C300   1.403       .  A
C295        H301   1.082       .  S
C296       C1467   1.466   1_455  S
C296        C297   1.403       .  A
C297        C298   1.385       .  A
C297        H302   1.084       .  S
C298        C299   1.399       .  A
C298        H303   1.083       .  S
C299        C300   1.409       .  A
C300        H304   1.084       .  S
C305        C306   1.412       .  A
C305        C310   1.401       .  A
C305        H311   1.083       .  S
C306        C307   1.402       .  A
C307        C308   1.396       .  A
C307        H312   1.083       .  S
C308        C309   1.407       .  A
C308        H313   1.084       .  S
C309        C310   1.399       .  A
C310        H314   1.083       .  S
C315        C316   1.404   1_565  A
C315        C320   1.393       .  A
C315        H321   1.083       .  S
C316        C317   1.406       .  A
C317        C318   1.394       .  A
C317        H322   1.083       .  S
C318        C319   1.404       .  A
C318        H323   1.083       .  S
C319        C320   1.404   1_545  A
C320        H324   1.083       .  S
C325        C326   1.403       .  A
C325        C330   1.407       .  A
C325        H331   1.083       .  S
C326        C327   1.408       .  A
C327        C328   1.392       .  A
C327        H332   1.084       .  S
C328        C329   1.401       .  A
C328        H333   1.083       .  S
C329        C330   1.412       .  A
C330        H334   1.083       .  S
C335        C336   1.412       .  A
C335       C1588   1.411       .  A
C335        H341   1.083       .  S
C336        C337   1.401       .  A
C337       C1586   1.392       .  A
C337        H342   1.083       .  S
C338        C339   1.409       .  A
C338       C1585   1.392       .  A
C338        H343   1.083       .  S
C339        C340   1.405       .  A
C340       C1583   1.411       .  A
C340        H344   1.083       .  S
C345        C346   1.406       .  A
C345        C350   1.397       .  A
C345        H351   1.084       .  S
C346        C347   1.401       .  A
C347        C348   1.402       .  A
C347        H352   1.083       .  S
C348        C349   1.411       .  A
C348        H353   1.084       .  S
C349        C350   1.404       .  A
C350        H354   1.082       .  S
C355        C356   1.396       .  A
C355        C360   1.383       .  A
C355        H361   1.084       .  S
C356        C357   1.409       .  A
C357        C358   1.403       .  A
C357        H362   1.084       .  S
C358        C359   1.401       .  A
C358        H363   1.083       .  S
C359        C360   1.405       .  A
C360        H364   1.084       .  S
C365        C366   1.410       .  A
C365        C370   1.401       .  A
C365        H371   1.083       .  S
C366        C367   1.404       .  A
C367        C368   1.396       .  A
C367        H372   1.083       .  S
C368        C369   1.405       .  A
C368        H373   1.084       .  S
C369        C370   1.401       .  A
C370        H374   1.083       .  S
C375        C376   1.405       .  A
C375        C380   1.399       .  A
C375        H381   1.083   1_455  S
C376        C377   1.404       .  A
C377        C378   1.389       .  A
C377        H382   1.083       .  S
C378        C379   1.404       .  A
C378        H383   1.083       .  S
C379        C380   1.406       .  A
C380        H384   1.083   1_455  S
C385        C386   1.407       .  A
C385       C1014   1.409       .  A
C385        H391   1.082       .  S
C386        C387   1.410       .  A
C387        C388   1.394       .  A
C387        H392   1.083       .  S
C388        C389   1.400       .  A
C388        H393   1.083       .  S
C389        C816   1.481       .  S
C389       C1014   1.409       .  A
C390       C1009   1.409       .  A
C390       C1013   1.409       .  A
C390        H394   1.083       .  S
C395        C396   1.400       .  A
C395        C400   1.394       .  A
C395        H401   1.084       .  S
C396        C397   1.410       .  A
C397        C398   1.406       .  A
C397        H402   1.083       .  S
C398        C399   1.405       .  A
C398        H403   1.083       .  S
C399        C400   1.411       .  A
C400        H404   1.082       .  S
C405        C406   1.403       .  A
C405        C410   1.401       .  A
C405        H411   1.083       .  S
C406        C407   1.411       .  A
C407        C408   1.401       .  A
C407        H412   1.083       .  S
C408        C409   1.404       .  A
C408        H413   1.083       .  S
C409        C410   1.410       .  A
C410        H414   1.083       .  S
C415        C416   1.397       .  A
C415       C1044   1.385   1_545  A
C415        H421   1.084       .  S
C416        C417   1.407       .  A
C417       C1042   1.403   1_545  A
C417        H422   1.084       .  S
C418        C419   1.403       .  A
C418       C1041   1.403       .  A
C418        H423   1.083       .  S
C419        C420   1.404       .  A
C420       C1039   1.385       .  A
C420        H424   1.084       .  S
C425        C426   1.404       .  A
C425        C430   1.395       .  A
C425        H431   1.084       .  S
C426        C427   1.409       .  A
C427        C428   1.406       .  A
C427        H432   1.082       .  S
C428        C429   1.403       .  A
C428        H433   1.084       .  S
C429        C430   1.404       .  A
C430        H434   1.083       .  S
C435        C436   1.391       .  A
C435        C440   1.389       .  A
C435        H441   1.084       .  S
C436        C437   1.407       .  A
C437        C438   1.391       .  A
C437        H442   1.084       .  S
C438        C439   1.393       .  A
C438        H443   1.083       .  S
C439        C440   1.409       .  A
C440        H444   1.083       .  S
C445        C450   1.393       .  A
C445       C1694   1.409   1_455  A
C445        H451   1.084       .  S
C446        C447   1.405       .  A
C446       C1693   1.409       .  A
C447        C448   1.411       .  A
C447        H452   1.082       .  S
C448       C1697   1.412       .  A
C448        H453   1.083       .  S
C449        C450   1.401       .  A
C449       C1696   1.412   1_455  A
C450        H454   1.083       .  S
C455        C456   1.412       .  A
C455        C460   1.412       .  A
C455        H461   1.083       .  S
C456        C457   1.401       .  A
C457        C458   1.393       .  A
C457        H462   1.083       .  S
C458        C459   1.410       .  A
C458        H463   1.084       .  S
C459        C460   1.406       .  A
C460        H464   1.082       .  S
C465        C466   1.405       .  A
C465        C470   1.395       .  A
C465        H471   1.084       .  S
C466        C467   1.403       .  A
C467        C468   1.406       .  A
C467        H472   1.083       .  S
C468        C469   1.410       .  A
C468        H473   1.083       .  S
C469        C470   1.403       .  A
C470        H474   1.084       .  S
C475        C476   1.403       .  A
C475        C480   1.385       .  A
C475        H481   1.084       .  S
C476        C477   1.402       .  A
C477        C478   1.403       .  A
C477        H482   1.082       .  S
C478        C479   1.407       .  A
C478        H483   1.084       .  S
C479       C1357   1.458   1_455  S
C479        C480   1.397       .  A
C480        H484   1.084       .  S
C485        C486   1.411       .  A
C485        C490   1.400       .  A
C485        H491   1.083       .  S
C486        C487   1.403       .  A
C487        C488   1.401       .  A
C487        H492   1.083       .  S
C488        C489   1.411       .  A
C488        H493   1.083       .  S
C489        C490   1.403       .  A
C490        H494   1.083       .  S
C495        C496   1.405       .  A
C495        C500   1.393       .  A
C495        H501   1.083       .  S
C496        C497   1.405       .  A
C497        C498   1.397       .  A
C497        H502   1.083       .  S
C498        C499   1.405       .  A
C498        H503   1.083       .  S
C499        C500   1.405       .  A
C500        H504   1.084       .  S
C505        C506   1.405       .  A
C505        C510   1.408       .  A
C505        H511   1.083       .  S
C506        C507   1.410       .  A
C507        C508   1.392       .  A
C507        H512   1.083       .  S
C508        C509   1.401       .  A
C508        H513   1.083       .  S
C509        C510   1.412       .  A
C510        H514   1.083       .  S
C515        C516   1.412       .  A
C515        C520   1.410       .  A
C515        H521   1.083       .  S
C516        C517   1.401       .  A
C517        C518   1.391       .  A
C517        H522   1.083       .  S
C518        C519   1.408       .  A
C518        H523   1.084       .  S
C519        C520   1.405       .  A
C520        H524   1.083       .  S
C525        C526   1.410       .  A
C525        C530   1.402       .  A
C525        H531   1.084       .  S
C526        C527   1.404       .  A
C527        C528   1.397       .  A
C527        H532   1.082       .  S
C528        C529   1.405       .  A
C528        H533   1.084       .  S
C529        C530   1.401       .  A
C530        H534   1.083       .  S
C535        C536   1.404       .  A
C535        C540   1.405       .  A
C535        H541   1.083       .  S
C536        C537   1.403       .  A
C537        C538   1.384       .  A
C537       H1790   1.083       .  S
C538        C539   1.401       .  A
C538        H543   1.084       .  S
C539        C540   1.409       .  A
C540        H544   1.082       .  S
H542       C1785   1.083   1_455  S
C545       C1794   1.411   1_455  A
C545       C1798   1.402   1_455  A
C545        H551   1.083       .  S
C546        C547   1.404       .  A
C546       C1793   1.411       .  A
C547        C548   1.397       .  A
C547        H552   1.083       .  S
C548        C549   1.407       .  A
C548        H553   1.084       .  S
C549        C550   1.401       .  A
C550       C1793   1.402       .  A
C550       H1802   1.083       .  S
H554       C1798   1.083   1_455  S
C555        C556   1.411       .  A
C555       C1808   1.410       .  A
C555        H561   1.083       .  S
C556        C557   1.400       .  A
C557        C558   1.391       .  A
C557        H562   1.083       .  S
C558        C559   1.409       .  A
C558        H563   1.084       .  S
C559       C1287   1.486       .  S
C559       C1808   1.405       .  A
C560       C1803   1.410   1_455  A
C560       C1807   1.405       .  A
C560        H564   1.082       .  S
C565        C566   1.405       .  A
C565        C570   1.409       .  A
C565        H571   1.082       .  S
C566        C567   1.404       .  A
C567        C568   1.391       .  A
C567        H572   1.085       .  S
C568        C569   1.404       .  A
C568        H573   1.082       .  S
C569        C570   1.411       .  A
C570        H574   1.083       .  S
C575        C576   1.404       .  A
C575       C1204   1.385   1_545  A
C575       H1829   1.084       .  S
C576        C577   1.403       .  A
C577       C1202   1.404   1_545  A
C577        H582   1.083       .  S
C578        C579   1.409       .  A
C578       C1201   1.404       .  A
C578        H583   1.083       .  S
C579        C580   1.400       .  A
C580       C1199   1.385       .  A
C580        H584   1.083       .  S
H581       C1823   1.084   1_455  S
C585        C586   1.400       .  A
C585        C590   1.402       .  A
C585        H591   1.084       .  S
C586        C587   1.406       .  A
C587        C588   1.397       .  A
C587        H592   1.083       .  S
C588        C589   1.403       .  A
C588        H593   1.084       .  S
C589        C590   1.412       .  A
C590        H594   1.082       .  S
C595        C596   1.402       .  A
C595        C600   1.396       .  A
C595        H601   1.083       .  S
C596        C597   1.412       .  A
C597        C598   1.401       .  A
C597        H602   1.083       .  S
C598        C599   1.400       .  A
C598        H603   1.083       .  S
C599        C600   1.407       .  A
C600        H604   1.083       .  S
C605        C606   1.405       .  A
C605        C610   1.395       .  A
C605        H611   1.083       .  S
C606        C607   1.405       .  A
C607        C608   1.393       .  A
C607       H1860   1.083   1_455  S
C608        C609   1.405       .  A
C608       H1861   1.083   1_455  S
C609        C610   1.405       .  A
C610        H614   1.083       .  S
H612       C1855   1.083       .  S
H613       C1856   1.083       .  S
C615       C1864   1.406       .  A
C615       C1868   1.410   1_455  A
C615        H621   1.082       .  S
C616       C1265   1.490       .  S
C616        C617   1.411       .  A
C616       C1863   1.406       .  A
C617        C618   1.392       .  A
C617        H622   1.083       .  S
C618        C619   1.399       .  A
C618        H623   1.083       .  S
C619        C620   1.411       .  A
C620       C1863   1.410       .  A
C620        H624   1.083       .  S
O625        C640   1.279       .  A
O625       Al633   1.963       .  S
C626        O636   1.268       .  A
C626        O627   1.265       .  A
C626       C1230   1.473       .  S
O627       Al629   1.891       .  S
O628        C630   1.255       .  A
O628       Al629   1.887       .  S
Al629       O637   1.909       .  S
Al629       O639   1.884       .  S
Al629       O638   1.782       .  S
C630        O643   1.261       .  A
C630       C1210   1.474       .  S
O631        C641   1.272       .  A
O631       Al633   1.966       .  S
O632        C645   1.262       .  A
O632       Al642   1.920       .  S
Al633       O646   1.867       .  S
Al633       O643   1.924       .  S
Al633       O638   1.772       .  S
O634       C1889   1.255       .  A
O634       Al642   1.860       .  S
O635        C644   1.263       .  A
O635       Al642   1.913       .  S
O636      Al1890   1.921       .  S
O637       C1892   1.260       .  A
O638      Al1890   1.782       .  S
O639        C640   1.271       .  A
C640       C1193   1.486       .  S
C641       O1882   1.255       .  A
C641       C2488   1.490       .  S
Al642      O1884   1.921       .  S
Al642      O1886   1.782       .  S
C644       O1885   1.260       .  A
C644       C1220   1.482       .  S
C645       O1894   1.257       .  A
C645       C1200   1.470       .  S
O646       C1893   1.257       .  A
O647        C662   1.276       .  A
O647       Al655   1.951       .  S
C648        O658   1.267       .  A
C648        O649   1.264       .  A
C648       C1233   1.473       .  S
O649       Al651   1.893       .  S
O650        C652   1.256       .  A
O650       Al651   1.890       .  S
Al651       O659   1.921       .  S
Al651       O661   1.895       .  S
Al651       O660   1.783       .  S
C652        O665   1.261       .  A
C652       C1153   1.474       .  S
O653        C663   1.271       .  A
O653       Al655   1.963       .  S
O654        C667   1.261       .  A
O654       Al664   1.920       .  S
Al655       O668   1.867       .  S
Al655       O665   1.920       .  S
Al655       O660   1.772       .  S
O656       C1911   1.256       .  A
O656       Al664   1.862       .  S
O657        C666   1.263       .  A
O657       Al664   1.910       .  S
O658      Al1912   1.919       .  S
O659       C1914   1.262       .  A
O660      Al1912   1.784       .  S
O661        C662   1.273       .  A
C662       C1140   1.487       .  S
C663       O1904   1.256       .  A
C663       C2431   1.486       .  S
Al664      O1906   1.919       .  S
Al664      O1908   1.784       .  S
C666       O1907   1.262       .  A
C666       C1170   1.486       .  S
C667       O1916   1.256       .  A
C667       C1160   1.469       .  S
O668       C1915   1.256       .  A
O669        C684   1.279       .  A
O669       Al677   1.950       .  S
C670        O680   1.272   1_545  A
C670       C1120   1.474       .  S
O671       Al673   1.888       .  S
O672        C674   1.250       .  A
O672       Al673   1.879       .  S
Al673       O683   1.902       .  S
C674        O687   1.257       .  A
C674       C1173   1.476       .  S
O675       Al677   1.947       .  S
O676        C689   1.260       .  A
O676       Al686   1.904       .  S
Al677       O687   1.927       .  S
O678        C685   1.253       .  A
O678       Al686   1.855       .  S
O679        C688   1.256       .  A
O679       Al686   1.906       .  S
O680       Al686   1.926       .  S
O681        C688   1.255   1_545  A
O682       Al686   1.786   1_545  S
O683        C684   1.278       .  A
C684       C1243   1.484       .  S
C685       C1130   1.488       .  S
C688       C1150   1.485       .  S
C689        O690   1.257       .  A
C689       C1163   1.472       .  S
O691        C706   1.278       .  A
O691       Al699   1.960       .  S
C692        O702   1.266   1_545  A
C692       C1123   1.474       .  S
O693       Al695   1.906       .  S
O694        C696   1.254       .  A
O694       Al695   1.886       .  S
Al695       O705   1.900       .  S
C696        O709   1.261       .  A
C696       C1090   1.476       .  S
O697       Al699   1.958       .  S
O698        C711   1.260       .  A
O698       Al708   1.911       .  S
Al699       O709   1.930       .  S
O700        C707   1.257       .  A
O700       Al708   1.866       .  S
O701        C710   1.264       .  A
O701       Al708   1.917       .  S
O702       Al708   1.916       .  S
O703        C710   1.261   1_545  A
O704       Al708   1.785   1_545  S
O705        C706   1.274       .  A
C706       C1080   1.490       .  S
C707       C1143   1.485       .  S
C710       C1110   1.487       .  S
C711        O712   1.258       .  A
C711       C1100   1.465       .  S
O713        C728   1.266       .  A
O713       Al721   1.904       .  S
C714        O724   1.260       .  A
C714        O715   1.272       .  A
C714       C1060   1.445       .  S
O715       Al717   1.927       .  S
O716        C718   1.248       .  A
O716       Al717   1.869       .  S
Al717       O725   1.901       .  S
Al717       O727   1.916       .  S
Al717       O726   1.787       .  S
C718        O731   1.257       .  A
C718       C1113   1.487       .  S
O719        C729   1.267       .  A
O719       Al721   1.956       .  S
O720        C733   1.269       .  A
O720       Al730   1.895       .  S
Al721       O734   1.908       .  S
Al721       O731   1.915       .  S
Al721       O726   1.783       .  S
O722        C729   1.254       .  A
O722       Al730   1.891       .  S
O723        C732   1.250       .  A
O723       Al730   1.888       .  S
O724       Al730   1.844       .  S
O725        C732   1.250       .  A
O726       Al730   1.793       .  S
O727        C728   1.271       .  A
C728       C1133   1.486       .  S
C729       C1070   1.488       .  S
C732       C1093   1.482       .  S
C733        O734   1.271       .  A
C733       C2351   1.458       .  S
O735        C750   1.266       .  A
O735       Al743   1.900   1_554  S
C736        O746   1.261       .  A
C736        O737   1.274       .  A
C736       C1063   1.451       .  S
O737       Al739   1.931   1_556  S
O738        C740   1.248       .  A
O738       Al739   1.870   1_556  S
Al739       O747   1.905       .  S
Al739       O749   1.924       .  S
Al739       O748   1.788   1_554  S
C740        O753   1.257       .  A
C740       C1030   1.488       .  S
O741        C751   1.267       .  A
O741       Al743   1.958       .  S
O742        C755   1.269       .  A
O742       Al752   1.895   1_554  S
Al743       O756   1.908   1_556  S
Al743       O753   1.915       .  S
Al743       O748   1.782       .  S
O744        C751   1.254       .  A
O744       Al752   1.894       .  S
O745        C754   1.249       .  A
O745       Al752   1.882   1_554  S
O746       Al752   1.842       .  S
O747        C754   1.251       .  A
O748       Al752   1.793       .  S
O749        C750   1.273       .  A
C750       C1020   1.483       .  S
C751       C1083   1.491       .  S
C754       C1050   1.482       .  S
C755        O756   1.271       .  A
C755       C1040   1.459       .  S
O757        C772   1.277       .  A
O757       Al765   1.957   1_556  S
C758        O768   1.266       .  A
C758        O759   1.267       .  A
C758       C1000   1.474       .  S
O759       Al761   1.905   1_554  S
O760       C2010   1.257       .  A
O760       Al761   1.893   1_654  S
Al761       O769   1.920       .  S
Al761       O771   1.900       .  S
Al761       O770   1.780   1_556  S
C762       O2008   1.257       .  A
C762       O2023   1.261       .  A
C762       C1053   1.476       .  S
O763        C773   1.271       .  A
O763       Al765   1.958       .  S
O764        C777   1.261       .  A
O764       Al774   1.916       .  S
Al765       O778   1.869       .  S
Al765       O775   1.926   1_455  S
Al765       O770   1.772       .  S
O766        C773   1.257       .  A
O766       Al774   1.869       .  S
O767        C776   1.264       .  A
O767       Al774   1.915   1_556  S
O768       Al774   1.916       .  S
O769        C776   1.262       .  A
O770       Al774   1.784       .  S
O771        C772   1.274       .  A
C772       C1073   1.488       .  S
C773       C1010   1.490       .  S
O775       C2010   1.261       .  A
C776       C1033   1.489       .  S
C777        O778   1.258       .  A
C777       C1043   1.465       .  S
O779        C794   1.275       .  A
O779       Al787   1.950       .  S
C780        O790   1.265       .  A
C780        O781   1.264       .  A
C780       C1003   1.474       .  S
O781       Al783   1.902       .  S
O782       C2032   1.256       .  A
O782       Al783   1.886   1_655  S
Al783       O791   1.925       .  S
Al783       O793   1.899       .  S
Al783       O792   1.782       .  S
C784       O2030   1.256       .  A
C784       O2045   1.262       .  A
C784        C970   1.473       .  S
O785        C795   1.273       .  A
O785       Al787   1.963       .  S
O786        C799   1.259       .  A
O786       Al796   1.910       .  S
Al787       O800   1.871       .  S
Al787       O797   1.922   1_455  S
Al787       O792   1.770       .  S
O788        C795   1.256       .  A
O788       Al796   1.865       .  S
O789        C798   1.263       .  A
O789       Al796   1.904       .  S
O790       Al796   1.914       .  S
O791        C798   1.264       .  A
O792       Al796   1.783       .  S
O793        C794   1.272       .  A
C794        C960   1.488   1_455  S
C795       C1023   1.488       .  S
O797       C2032   1.262       .  A
C798        C990   1.482       .  S
C799        O800   1.257       .  A
C799        C980   1.462       .  S
O801        C816   1.282       .  A
O801       Al809   1.950       .  S
C802        O812   1.275       .  A
C802        O803   1.270       .  A
C802        C940   1.471       .  S
O803       Al805   1.881       .  S
O804        C806   1.244       .  A
Al805       O813   1.898       .  S
Al805       O814   1.786       .  S
C806        O819   1.251       .  A
C806        C993   1.473       .  S
O807        C817   1.266       .  A
O807       Al809   1.935       .  S
O808        C821   1.258       .  A
O808       Al818   1.897       .  S
Al809       O822   1.863       .  S
Al809       O814   1.777       .  S
O810        C817   1.255       .  A
O810       Al818   1.865       .  S
O811        C820   1.252       .  A
O811       Al818   1.906       .  S
O812       Al818   1.926       .  S
O813        C820   1.249       .  A
O814       Al818   1.786       .  S
C817        C950   1.482       .  S
C820        C973   1.484       .  S
C821        O822   1.256       .  A
C821        C983   1.464       .  S
O823       Al831   1.963       .  S
C824        O834   1.266       .  A
C824        O825   1.265       .  A
C824        C943   1.470       .  S
O825       Al827   1.892       .  S
O826        C828   1.253       .  A
Al827       O835   1.907       .  S
Al827       O836   1.779       .  S
C828        O841   1.261       .  A
C828        C910   1.472       .  S
O829        C839   1.272       .  A
O829       Al831   1.965       .  S
O830        C843   1.260       .  A
O830       Al840   1.914       .  S
Al831       O844   1.869       .  S
Al831       O836   1.773       .  S
O832        C839   1.257       .  A
O832       Al840   1.865       .  S
O833        C842   1.264       .  A
O833       Al840   1.914       .  S
O834       Al840   1.919       .  S
O835        C842   1.259       .  A
O836       Al840   1.785       .  S
O837        C838   1.271       .  A
C838        C900   1.490       .  S
C839        C963   1.488       .  S
C842        C930   1.482       .  S
C843        O844   1.257       .  A
C843       C2168   1.466       .  S
O845        C860   1.280       .  A
O845       Al853   1.950       .  S
C846        O856   1.274       .  A
C846        O847   1.271       .  A
C846        C893   1.468       .  S
O847       Al849   1.886       .  S
O848        C850   1.247       .  A
O848       Al849   1.872       .  S
Al849       O857   1.891       .  S
Al849       O859   1.900       .  S
Al849       O858   1.781       .  S
C850        O863   1.255       .  A
C850        C933   1.473       .  S
O851        C861   1.263       .  A
O851       Al853   1.928       .  S
O852        C865   1.260       .  A
O852       Al862   1.896       .  S
Al853       O866   1.870       .  S
Al853       O863   1.926       .  S
Al853       O858   1.777       .  S
O854        C861   1.256       .  A
O854       Al862   1.871       .  S
O855        C864   1.255       .  A
O855       Al862   1.916       .  S
O856       Al862   1.922       .  S
O857        C864   1.249       .  A
O858       Al862   1.786       .  S
O859        C860   1.278       .  A
C860        C953   1.485       .  S
C861       C1190   1.479       .  S
C864        C913   1.484       .  S
C865        O866   1.259       .  A
C865        C923   1.467       .  S
O867        C882   1.280       .  A
O867       Al875   1.953       .  S
C868        O878   1.273       .  A
C868        O869   1.269       .  A
C868        C890   1.470       .  S
O869       Al871   1.885       .  S
O870        C872   1.248       .  A
O870       Al871   1.872       .  S
Al871       O879   1.901       .  S
Al871       O881   1.898       .  S
Al871       O880   1.786       .  S
C872        O885   1.256       .  A
C872       C1223   1.474       .  S
O873        C883   1.266       .  A
O873       Al875   1.943       .  S
O874        C887   1.260       .  A
O874       Al884   1.900       .  S
Al875       O888   1.868       .  S
Al875       O885   1.927       .  S
Al875       O880   1.778       .  S
O876        C883   1.255       .  A
O876       Al884   1.862       .  S
O877        C886   1.256       .  A
O877       Al884   1.911       .  S
O878       Al884   1.921       .  S
O879        C886   1.252       .  A
O880       Al884   1.785       .  S
O881        C882   1.278       .  A
C882       C1180   1.484       .  S
C883        C903   1.488       .  S
C886       C1213   1.484       .  S
C887        O888   1.258       .  A
C887       C1203   1.471       .  S
C889        C890   1.405       .  A
C889        C894   1.391       .  A
C889        H895   1.083       .  S
C890        C891   1.404       .  A
C891        C892   1.394       .  A
C891        H896   1.083       .  S
C892        C893   1.405       .  A
C892        H897   1.083       .  S
C893        C894   1.403       .  A
C894        H898   1.083       .  S
C899        C900   1.403       .  A
C899        C904   1.391       .  A
C899        H905   1.082       .  S
C900        C901   1.412       .  A
C901        C902   1.412       .  A
C902        C903   1.407       .  A
C902        H907   1.082       .  S
C903        C904   1.407       .  A
C904        H908   1.084       .  S
C909        C910   1.400       .  A
C909        C914   1.401       .  A
C909        H915   1.084       .  S
C910        C911   1.407       .  A
C911        C912   1.398       .  A
C911        H916   1.083       .  S
C912        C913   1.402       .  A
C912        H917   1.083       .  S
C913        C914   1.412       .  A
C914        H918   1.083       .  S
C919        C920   1.402       .  A
C919        C924   1.403       .  A
C919        H925   1.082       .  S
C920       C2091   1.466   1_455  S
C920        C921   1.403       .  A
C921        C922   1.385       .  A
C921        H926   1.084       .  S
C922        C923   1.399       .  A
C922        H927   1.083       .  S
C923        C924   1.409       .  A
C924        H928   1.084       .  S
C929        C930   1.412       .  A
C929        C934   1.401       .  A
C929        H935   1.083       .  S
C930        C931   1.402       .  A
C931        C932   1.396       .  A
C931        H936   1.083       .  S
C932        C933   1.407       .  A
C932        H937   1.084       .  S
C933        C934   1.399       .  A
C934        H938   1.083       .  S
C939        C940   1.404       .  A
C939        C944   1.393       .  A
C939        H945   1.083       .  S
C940        C941   1.406       .  A
C941        C942   1.394       .  A
C941        H946   1.083       .  S
C942        C943   1.404       .  A
C942        H947   1.083       .  S
C943        C944   1.404       .  A
C944        H948   1.083       .  S
C949        C950   1.403       .  A
C949        C954   1.407       .  A
C949        H955   1.083       .  S
C950        C951   1.408       .  A
C951        C952   1.392       .  A
C951        H956   1.084       .  S
C952        C953   1.401       .  A
C952        H957   1.083       .  S
C953        C954   1.412       .  A
C954        H958   1.083       .  S
C959        C960   1.412       .  A
C959       C2212   1.411       .  A
C959        H965   1.083       .  S
C960        C961   1.401       .  A
C961       C2210   1.392       .  A
C961        H966   1.083       .  S
C962       C2209   1.392       .  A
C962        C963   1.409       .  A
C962        H967   1.083       .  S
C963        C964   1.405       .  A
C964       C2207   1.411       .  A
C964        H968   1.083       .  S
C969        C970   1.406       .  A
C969        C974   1.397       .  A
C969        H975   1.084       .  S
C970        C971   1.401       .  A
C971        C972   1.402       .  A
C971        H976   1.083       .  S
C972        C973   1.411       .  A
C972        H977   1.084       .  S
C973        C974   1.404       .  A
C974        H978   1.082       .  S
C979        C980   1.396       .  A
C979        C984   1.383       .  A
C979        H985   1.084       .  S
C980        C981   1.409       .  A
C981        C982   1.403       .  A
C981        H986   1.084       .  S
C982        C983   1.401       .  A
C982        H987   1.083       .  S
C983        C984   1.405       .  A
C984        H988   1.084       .  S
C989        C990   1.410       .  A
C989        C994   1.401       .  A
C989        H995   1.083       .  S
C990        C991   1.404       .  A
C991        C992   1.396       .  A
C991        H996   1.083       .  S
C992        C993   1.405       .  A
C992        H997   1.084       .  S
C993        C994   1.401       .  A
C994        H998   1.083       .  S
C999       C1000   1.405       .  A
C999       C1004   1.399       .  A
C999       H1005   1.083   1_455  S
C1000      C1001   1.404       .  A
C1001      C1002   1.389       .  A
C1001      H1006   1.083       .  S
C1002      C1003   1.404       .  A
C1002      H1007   1.083       .  S
C1003      C1004   1.406       .  A
C1004      H1008   1.083   1_455  S
C1009      C1010   1.407       .  A
C1009      H1015   1.082       .  S
C1010      C1011   1.410       .  A
C1011      C1012   1.394       .  A
C1011      H1016   1.083       .  S
C1012      C1013   1.400       .  A
C1012      H1017   1.083       .  S
C1014      H1018   1.083       .  S
C1019      C1020   1.400       .  A
C1019      C1024   1.394       .  A
C1019      H1025   1.084       .  S
C1020      C1021   1.410       .  A
C1021      C1022   1.406       .  A
C1021      H1026   1.083       .  S
C1022      C1023   1.405       .  A
C1022      H1027   1.083       .  S
C1023      C1024   1.411       .  A
C1024      H1028   1.082       .  S
C1029      C1030   1.403       .  A
C1029      C1034   1.401       .  A
C1029      H1035   1.083       .  S
C1030      C1031   1.411       .  A
C1031      C1032   1.401       .  A
C1031      H1036   1.083       .  S
C1032      C1033   1.404       .  A
C1032      H1037   1.083       .  S
C1033      C1034   1.410       .  A
C1034      H1038   1.083       .  S
C1039      C1040   1.397       .  A
C1039      H1045   1.084       .  S
C1040      C1041   1.407       .  A
C1041      H1046   1.084       .  S
C1042      C1043   1.403       .  A
C1042      H1047   1.083       .  S
C1043      C1044   1.404       .  A
C1044      H1048   1.084       .  S
C1049      C1050   1.404       .  A
C1049      C1054   1.395       .  A
C1049      H1055   1.084       .  S
C1050      C1051   1.409       .  A
C1051      C1052   1.406       .  A
C1051      H1056   1.082       .  S
C1052      C1053   1.403       .  A
C1052      H1057   1.084       .  S
C1053      C1054   1.404       .  A
C1054      H1058   1.083       .  S
C1059      C1060   1.391       .  A
C1059      C1064   1.389       .  A
C1059      H1065   1.084       .  S
C1060      C1061   1.407       .  A
C1061      C1062   1.391       .  A
C1061      H1066   1.084       .  S
C1062      C1063   1.393       .  A
C1062      H1067   1.083       .  S
C1063      C1064   1.409       .  A
C1064      H1068   1.083       .  S
C1069      C2318   1.409   1_455  A
C1069      C1074   1.393       .  A
C1069      H1075   1.084       .  S
C1070      C2317   1.409       .  A
C1070      C1071   1.405       .  A
C1071      C1072   1.411       .  A
C1071      H1076   1.082       .  S
C1072      C2321   1.412       .  A
C1072      H1077   1.083       .  S
C1073      C2320   1.412   1_455  A
C1073      C1074   1.401       .  A
C1074      H1078   1.083       .  S
C1079      C1080   1.412       .  A
C1079      C1084   1.412       .  A
C1079      H1085   1.083       .  S
C1080      C1081   1.401       .  A
C1081      C1082   1.393       .  A
C1081      H1086   1.083       .  S
C1082      C1083   1.410       .  A
C1082      H1087   1.084       .  S
C1083      C1084   1.406       .  A
C1084      H1088   1.082       .  S
C1089      C1090   1.405       .  A
C1089      C1094   1.395       .  A
C1089      H1095   1.084       .  S
C1090      C1091   1.403       .  A
C1091      C1092   1.406       .  A
C1091      H1096   1.083       .  S
C1092      C1093   1.410       .  A
C1092      H1097   1.083       .  S
C1093      C1094   1.403       .  A
C1094      H1098   1.084       .  S
C1099      C1100   1.403       .  A
C1099      C1104   1.385       .  A
C1099      H1105   1.084       .  S
C1100      C1101   1.402       .  A
C1101      C1102   1.403       .  A
C1101      H1106   1.082       .  S
C1102      C1103   1.407       .  A
C1102      H1107   1.084       .  S
C1103      C1981   1.458   1_455  S
C1103      C1104   1.397       .  A
C1104      H1108   1.084       .  S
C1109      C1110   1.411       .  A
C1109      C1114   1.400       .  A
C1109      H1115   1.083   1_565  S
C1110      C1111   1.403       .  A
C1111      C1112   1.401       .  A
C1111      H1116   1.083       .  S
C1112      C1113   1.411       .  A
C1112      H1117   1.083       .  S
C1113      C1114   1.403       .  A
C1114      H1118   1.083       .  S
C1119      C1120   1.405   1_565  A
C1119      C1124   1.393       .  A
C1119      H1125   1.083       .  S
C1120      C1121   1.405       .  A
C1121      C1122   1.397       .  A
C1121      H1126   1.083       .  S
C1122      C1123   1.405       .  A
C1122      H1127   1.083       .  S
C1123      C1124   1.405   1_545  A
C1124      H1128   1.084       .  S
C1129      C1130   1.405       .  A
C1129      C1134   1.408       .  A
C1129      H1135   1.083       .  S
C1130      C1131   1.410       .  A
C1131      C1132   1.392       .  A
C1131      H1136   1.083       .  S
C1132      C1133   1.401       .  A
C1132      H1137   1.083       .  S
C1133      C1134   1.412       .  A
C1134      H1138   1.083       .  S
C1139      C1140   1.412       .  A
C1139      C1144   1.410       .  A
C1139      H1145   1.083       .  S
C1140      C1141   1.401       .  A
C1141      C1142   1.391       .  A
C1141      H1146   1.083       .  S
C1142      C1143   1.408       .  A
C1142      H1147   1.084       .  S
C1143      C1144   1.405       .  A
C1144      H1148   1.083   1_565  S
C1149      C1150   1.410       .  A
C1149      C1154   1.402       .  A
C1149      H1155   1.084   1_565  S
C1150      C1151   1.404       .  A
C1151      C1152   1.397       .  A
C1151      H1156   1.082       .  S
C1152      C1153   1.405       .  A
C1152      H1157   1.084       .  S
C1153      C1154   1.401       .  A
C1154      H1158   1.083       .  S
C1159      C1160   1.404       .  A
C1159      C1164   1.405       .  A
C1159      H1165   1.083       .  S
C1160      C1161   1.403       .  A
C1161      C1162   1.384       .  A
C1161      H2414   1.083       .  S
C1162      C1163   1.401       .  A
C1162      H1167   1.084       .  S
C1163      C1164   1.409       .  A
C1164      H1168   1.082       .  S
H1166      C2409   1.083   1_455  S
C1169      C2418   1.411   1_455  A
C1169      C2422   1.402   1_455  A
C1169      H1175   1.083       .  S
C1170      C2417   1.411       .  A
C1170      C1171   1.404       .  A
C1171      C1172   1.397       .  A
C1171      H1176   1.083       .  S
C1172      C1173   1.407       .  A
C1172      H1177   1.084       .  S
C1173      C1174   1.401       .  A
C1174      C2417   1.402       .  A
C1174      H2426   1.083       .  S
H1178      C2422   1.083   1_455  S
C1179      C1180   1.411       .  A
C1179      C2432   1.410       .  A
C1179      H1185   1.083       .  S
C1180      C1181   1.400       .  A
C1181      C1182   1.391       .  A
C1181      H1186   1.083       .  S
C1182      C1183   1.409       .  A
C1182      H1187   1.084       .  S
C1183      C1911   1.486       .  S
C1183      C2432   1.405       .  A
C1184      C2427   1.410   1_455  A
C1184      C2431   1.405       .  A
C1184      H1188   1.082       .  S
C1189      C1190   1.405       .  A
C1189      C1194   1.409       .  A
C1189      H1195   1.082       .  S
C1190      C1191   1.404       .  A
C1191      C1192   1.391       .  A
C1191      H1196   1.085       .  S
C1192      C1193   1.404       .  A
C1192      H1197   1.082       .  S
C1193      C1194   1.411       .  A
C1194      H1198   1.083       .  S
C1199      C1200   1.404       .  A
C1199      H2453   1.084       .  S
C1200      C1201   1.403       .  A
C1201      H1206   1.083       .  S
C1202      C1203   1.409       .  A
C1202      H1207   1.083       .  S
C1203      C1204   1.400       .  A
C1204      H1208   1.083       .  S
H1205      C2447   1.084   1_455  S
C1209      C1210   1.400       .  A
C1209      C1214   1.402       .  A
C1209      H1215   1.084       .  S
C1210      C1211   1.406       .  A
C1211      C1212   1.397       .  A
C1211      H1216   1.083       .  S
C1212      C1213   1.403       .  A
C1212      H1217   1.084       .  S
C1213      C1214   1.412       .  A
C1214      H1218   1.082       .  S
C1219      C1220   1.402       .  A
C1219      C1224   1.396       .  A
C1219      H1225   1.083       .  S
C1220      C1221   1.412       .  A
C1221      C1222   1.401       .  A
C1221      H1226   1.083       .  S
C1222      C1223   1.400       .  A
C1222      H1227   1.083       .  S
C1223      C1224   1.407       .  A
C1224      H1228   1.083       .  S
C1229      C1230   1.405       .  A
C1229      C1234   1.395       .  A
C1229      H1235   1.083       .  S
C1230      C1231   1.405       .  A
C1231      C1232   1.393       .  A
C1231      H2484   1.083   1_455  S
C1232      C1233   1.405       .  A
C1232      H2485   1.083   1_455  S
C1233      C1234   1.405       .  A
C1234      H1238   1.083       .  S
H1236      C2479   1.083       .  S
H1237      C2480   1.083       .  S
C1239      C2488   1.406       .  A
C1239      C2492   1.410   1_455  A
C1239      H1245   1.082       .  S
C1240      C1889   1.490       .  S
C1240      C2487   1.406       .  A
C1240      C1241   1.411       .  A
C1241      C1242   1.392       .  A
C1241      H1246   1.083       .  S
C1242      C1243   1.399       .  A
C1242      H1247   1.083       .  S
C1243      C1244   1.411       .  A
C1244      C2487   1.410       .  A
C1244      H1248   1.083       .  S
O1249      C1264   1.279       .  A
O1249     Al1257   1.963       .  S
C1250      O1260   1.268       .  A
C1250      O1251   1.265       .  A
C1250      C1854   1.473       .  S
O1251     Al1253   1.891       .  S
O1252      C1254   1.255       .  A
O1252     Al1253   1.887       .  S
Al1253     O1261   1.909       .  S
Al1253     O1263   1.884       .  S
Al1253     O1262   1.782       .  S
C1254      O1267   1.261       .  A
C1254      C1834   1.474       .  S
O1255      C1265   1.272       .  A
O1255     Al1257   1.966       .  S
O1256      C1269   1.262   1_655  A
O1256     Al1266   1.920   1_655  S
Al1257     O1270   1.867       .  S
Al1257     O1267   1.924       .  S
Al1257     O1262   1.772       .  S
O1258     Al1266   1.860       .  S
O1259      C1268   1.263       .  A
O1259     Al1266   1.913       .  S
O1263      C1264   1.271       .  A
C1264      C1817   1.486       .  S
C1268      C1844   1.482   1_455  S
C1269      C1824   1.470   1_455  S
O1271      C1286   1.276       .  A
O1271     Al1279   1.951       .  S
C1272      O1282   1.267       .  A
C1272      O1273   1.264       .  A
C1272      C1857   1.473       .  S
O1273     Al1275   1.893       .  S
O1274      C1276   1.256       .  A
O1274     Al1275   1.890       .  S
Al1275     O1283   1.921       .  S
Al1275     O1285   1.895       .  S
Al1275     O1284   1.783       .  S
C1276      O1289   1.261       .  A
C1276      C1777   1.474       .  S
O1277      C1287   1.271       .  A
O1277     Al1279   1.963       .  S
O1278      C1291   1.261   1_655  A
O1278     Al1288   1.920   1_655  S
Al1279     O1292   1.867       .  S
Al1279     O1289   1.920       .  S
Al1279     O1284   1.772       .  S
O1280     Al1288   1.862       .  S
O1281      C1290   1.263       .  A
O1281     Al1288   1.910       .  S
O1285      C1286   1.273       .  A
C1286      C1764   1.487       .  S
C1290      C1794   1.486   1_455  S
C1291      C1784   1.469   1_455  S
O1293      C1308   1.279       .  A
O1293     Al1301   1.950       .  S
C1294      O1304   1.272       .  A
C1294      O1919   1.268       .  A
C1294      C1744   1.474       .  S
O1295      C1918   1.268       .  A
O1295     Al1297   1.888       .  S
O1296      C1298   1.250       .  A
O1296     Al1297   1.879       .  S
Al1297     O1929   1.913       .  S
Al1297     O1307   1.902       .  S
Al1297     O1930   1.788       .  S
C1298      O1311   1.257       .  A
C1298      C1797   1.476       .  S
O1299      C1933   1.268   1_545  A
O1299     Al1301   1.947       .  S
O1300      C1313   1.260       .  A
O1300     Al1310   1.904       .  S
Al1301     O1938   1.865   1_545  S
Al1301     O1311   1.927       .  S
Al1301     O1930   1.776       .  S
O1302      C1309   1.253       .  A
O1302     Al1310   1.855       .  S
O1303      C1312   1.256       .  A
O1303     Al1310   1.906       .  S
O1304     Al1310   1.926       .  S
O1305      C1312   1.255       .  A
O1305     Al1921   1.913       .  S
O1306     Al1921   1.788       .  S
O1306     Al1925   1.776       .  S
O1306     Al1310   1.786       .  S
O1307      C1308   1.278       .  A
C1308      C1867   1.484       .  S
C1309      O1923   1.268       .  A
C1309      C1754   1.488       .  S
C1312      C1774   1.485       .  S
C1313      O1314   1.257       .  A
C1313      C1787   1.472       .  S
O1314     Al1925   1.865       .  S
O1315      C1330   1.278       .  A
O1315     Al1323   1.960       .  S
C1316      O1326   1.266       .  A
C1316      O1941   1.268       .  A
C1316      C1747   1.474       .  S
O1317      C1940   1.268       .  A
O1317     Al1319   1.906       .  S
O1318      C1320   1.254       .  A
O1318     Al1319   1.886       .  S
Al1319     O1951   1.914       .  S
Al1319     O1329   1.900       .  S
Al1319     O1952   1.778       .  S
C1320      O1333   1.261       .  A
C1320      C1714   1.476       .  S
O1321      C1955   1.271   1_545  A
O1321     Al1323   1.958       .  S
O1322      C1335   1.260       .  A
O1322     Al1332   1.911       .  S
Al1323     O1960   1.870   1_545  S
Al1323     O1333   1.930       .  S
Al1323     O1952   1.774       .  S
O1324      C1331   1.257       .  A
O1324     Al1332   1.866       .  S
O1325      C1334   1.264       .  A
O1325     Al1332   1.917       .  S
O1326     Al1332   1.916       .  S
O1327      C1334   1.261       .  A
O1327     Al1943   1.914       .  S
O1328     Al1943   1.778       .  S
O1328     Al1947   1.774       .  S
O1328     Al1332   1.785       .  S
O1329      C1330   1.274       .  A
C1330      C1704   1.490       .  S
C1331      O1945   1.271       .  A
C1331      C1767   1.485       .  S
C1334      C1734   1.487       .  S
C1335      O1336   1.258       .  A
C1335      C1724   1.465       .  S
O1336     Al1947   1.870       .  S
O1337      C1352   1.266       .  A
O1337     Al1345   1.904       .  S
C1338      O1348   1.260       .  A
C1338      O1339   1.272       .  A
C1338      C1684   1.445       .  S
O1339     Al1341   1.927       .  S
O1340      C1342   1.248       .  A
O1340     Al1341   1.869       .  S
Al1341     O1349   1.901       .  S
Al1341     O1351   1.916       .  S
Al1341     O1350   1.787       .  S
C1342      O1355   1.257       .  A
C1342      C1737   1.487       .  S
O1343      C1353   1.267       .  A
O1343     Al1345   1.956       .  S
O1344      C1357   1.269       .  A
O1344     Al1354   1.895       .  S
Al1345     O1358   1.908       .  S
Al1345     O1355   1.915       .  S
Al1345     O1350   1.783       .  S
O1346      C1353   1.254       .  A
O1346     Al1354   1.891       .  S
O1347      C1356   1.250       .  A
O1347     Al1354   1.888       .  S
O1348     Al1354   1.844       .  S
O1349      C1356   1.250       .  A
O1350     Al1354   1.793       .  S
O1351      C1352   1.271       .  A
C1352      C1757   1.486       .  S
C1353      C1694   1.488       .  S
C1356      C1717   1.482       .  S
C1357      O1358   1.271       .  A
O1359      C1374   1.266       .  A
O1359     Al1367   1.900   1_554  S
C1360      O1370   1.261       .  A
C1360      O1361   1.274       .  A
C1360      C1687   1.451       .  S
O1361     Al1363   1.931   1_556  S
O1362      C1364   1.248       .  A
O1362     Al1363   1.870   1_556  S
Al1363     O1371   1.905       .  S
Al1363     O1373   1.924       .  S
Al1363     O1372   1.788   1_554  S
C1364      O1377   1.257       .  A
C1364      C1654   1.488       .  S
O1365      C1375   1.267       .  A
O1365     Al1367   1.958       .  S
O1366      C1379   1.269       .  A
O1366     Al1376   1.895   1_554  S
Al1367     O1380   1.908   1_556  S
Al1367     O1377   1.915       .  S
Al1367     O1372   1.782       .  S
O1368      C1375   1.254       .  A
O1368     Al1376   1.894       .  S
O1369      C1378   1.249       .  A
O1369     Al1376   1.882   1_554  S
O1370     Al1376   1.842       .  S
O1371      C1378   1.251       .  A
O1372     Al1376   1.793       .  S
O1373      C1374   1.273       .  A
C1374      C1644   1.483       .  S
C1375      C1707   1.491       .  S
C1378      C1674   1.482       .  S
C1379      O1380   1.271       .  A
C1379      C1664   1.459       .  S
O1381      C1396   1.277       .  A
O1381     Al1389   1.957   1_556  S
C1382      O1392   1.266       .  A
C1382      O1383   1.267       .  A
C1382      C1624   1.474       .  S
O1383     Al1385   1.905   1_554  S
O1384     Al1385   1.893   1_554  S
Al1385     O1393   1.920       .  S
Al1385     O1395   1.900       .  S
Al1385     O1394   1.780   1_556  S
C1386      C1677   1.476       .  S
O1387      C1397   1.271       .  A
O1387     Al1389   1.958       .  S
O1388      C1401   1.261       .  A
O1388     Al1398   1.916       .  S
Al1389     O1402   1.869       .  S
Al1389     O1399   1.926       .  S
Al1389     O1394   1.772       .  S
O1390      C1397   1.257       .  A
O1390     Al1398   1.869       .  S
O1391      C1400   1.264       .  A
O1391     Al1398   1.915   1_556  S
O1392     Al1398   1.916       .  S
O1393      C1400   1.262       .  A
O1394     Al1398   1.784       .  S
O1395      C1396   1.274       .  A
C1396      C1697   1.488       .  S
C1397      C1634   1.490       .  S
C1400      C1657   1.489       .  S
C1401      O1402   1.258       .  A
C1401      C1667   1.465       .  S
O1403      C1418   1.275       .  A
O1403     Al1411   1.950       .  S
C1404      O1414   1.265       .  A
C1404      O1405   1.264       .  A
C1404      C1627   1.474       .  S
O1405     Al1407   1.902       .  S
O1406     Al1407   1.886       .  S
Al1407     O1415   1.925       .  S
Al1407     O1417   1.899       .  S
Al1407     O1416   1.782       .  S
C1408      C1594   1.473       .  S
O1409      C1419   1.273       .  A
O1409     Al1411   1.963       .  S
O1410      C1423   1.259       .  A
O1410     Al1420   1.910       .  S
Al1411     O1424   1.871       .  S
Al1411     O1421   1.922       .  S
Al1411     O1416   1.770       .  S
O1412      C1419   1.256       .  A
O1412     Al1420   1.865       .  S
O1413      C1422   1.263       .  A
O1413     Al1420   1.904       .  S
O1414     Al1420   1.914       .  S
O1415      C1422   1.264       .  A
O1416     Al1420   1.783       .  S
O1417      C1418   1.272       .  A
C1418      C1584   1.488       .  S
C1419      C1647   1.488       .  S
C1422      C1614   1.482       .  S
C1423      O1424   1.257       .  A
C1423      C1604   1.462       .  S
O1425      C1440   1.282       .  A
O1425     Al1433   1.950       .  S
C1426      O1436   1.275       .  A
C1426      O1427   1.270   1_545  A
C1426      C1564   1.471       .  S
O1427     Al1429   1.881       .  S
O1428      C1430   1.244       .  A
O1428     Al2053   1.869       .  S
Al1429     O2052   1.869       .  S
Al1429     O1437   1.898   1_565  S
Al1429     O2063   1.903       .  S
Al1429     O1438   1.786   1_565  S
C1430      O1443   1.251       .  A
C1430      C1617   1.473       .  S
O1431      C1441   1.266       .  A
O1431     Al1433   1.935   1_545  S
O1432      C1445   1.258       .  A
O1432     Al1442   1.897       .  S
Al1433     O1446   1.863   1_565  S
Al1433     O2067   1.916       .  S
Al1433     O1438   1.777   1_565  S
O1434      C1441   1.255       .  A
O1434     Al1442   1.865       .  S
O1435      C1444   1.252       .  A
O1435     Al1442   1.906       .  S
O1436     Al1442   1.926       .  S
O1437      C1444   1.249       .  A
O1438     Al1442   1.786       .  S
O1439      C2064   1.281       .  A
O1439     Al2053   1.903       .  S
C1440      O2063   1.281       .  A
C1440      C2261   1.481       .  S
C1441      C1574   1.482       .  S
O1443     Al2057   1.916       .  S
C1444      C1597   1.484       .  S
C1445      O1446   1.256       .  A
C1445      C1607   1.464       .  S
O1447      C2086   1.278       .  A
O1447     Al1455   1.963       .  S
C1448      O1458   1.266       .  A
C1448      O1449   1.265   1_545  A
C1448      C1567   1.470       .  S
O1449     Al1451   1.892       .  S
O1450      C1452   1.253       .  A
O1450     Al2075   1.879       .  S
Al1451     O2074   1.879       .  S
Al1451     O1459   1.907   1_565  S
Al1451     O2085   1.888       .  S
Al1451     O1460   1.779   1_565  S
C1452      O1465   1.261       .  A
C1452      C1534   1.472       .  S
O1453      C1463   1.272       .  A
O1453     Al1455   1.965   1_545  S
O1454      C1467   1.260       .  A
O1454     Al1464   1.914       .  S
Al1455     O1468   1.869   1_565  S
Al1455     O2089   1.926       .  S
Al1455     O1460   1.773   1_565  S
O1456      C1463   1.257       .  A
O1456     Al1464   1.865       .  S
O1457      C1466   1.264       .  A
O1457     Al1464   1.914       .  S
O1458     Al1464   1.919       .  S
O1459      C1466   1.259       .  A
O1460     Al1464   1.785       .  S
O1461      C1462   1.271       .  A
O1461     Al2075   1.888       .  S
C1462      O2071   1.278       .  A
C1462      C1524   1.490       .  S
C1463      C1587   1.488       .  S
O1465     Al2079   1.926       .  S
C1466      C1554   1.482       .  S
C1467      O1468   1.257       .  A
O1469      C1484   1.280       .  A
O1469     Al1477   1.950       .  S
C1470      O1480   1.274       .  A
C1470      O1471   1.271       .  A
C1470      C1517   1.468       .  S
O1471     Al1473   1.886       .  S
O1472      C1474   1.247       .  A
O1472     Al1473   1.872       .  S
Al1473     O1481   1.891       .  S
Al1473     O1483   1.900       .  S
Al1473     O1482   1.781       .  S
C1474      O1487   1.255       .  A
C1474      C1557   1.473       .  S
O1475      C1485   1.263       .  A
O1475     Al1477   1.928       .  S
O1476      C1489   1.260       .  A
O1476     Al1486   1.896       .  S
Al1477     O1490   1.870       .  S
Al1477     O1487   1.926       .  S
Al1477     O1482   1.777       .  S
O1478      C1485   1.256       .  A
O1478     Al1486   1.871       .  S
O1479      C1488   1.255       .  A
O1479     Al1486   1.916       .  S
O1480     Al1486   1.922       .  S
O1481      C1488   1.249       .  A
O1482     Al1486   1.786       .  S
O1483      C1484   1.278       .  A
C1484      C1577   1.485       .  S
C1485      C1814   1.479       .  S
C1488      C1537   1.484       .  S
C1489      O1490   1.259       .  A
C1489      C1547   1.467       .  S
O1491      C1506   1.280       .  A
O1491     Al1499   1.953       .  S
C1492      O1502   1.273       .  A
C1492      O1493   1.269       .  A
C1492      C1514   1.470       .  S
O1493     Al1495   1.885       .  S
O1494      C1496   1.248       .  A
O1494     Al1495   1.872       .  S
Al1495     O1503   1.901       .  S
Al1495     O1505   1.898       .  S
Al1495     O1504   1.786       .  S
C1496      O1509   1.256       .  A
C1496      C1847   1.474       .  S
O1497      C1507   1.266       .  A
O1497     Al1499   1.943       .  S
O1498      C1511   1.260       .  A
O1498     Al1508   1.900       .  S
Al1499     O1512   1.868       .  S
Al1499     O1509   1.927       .  S
Al1499     O1504   1.778       .  S
O1500      C1507   1.255       .  A
O1500     Al1508   1.862       .  S
O1501      C1510   1.256       .  A
O1501     Al1508   1.911       .  S
O1502     Al1508   1.921       .  S
O1503      C1510   1.252       .  A
O1504     Al1508   1.785       .  S
O1505      C1506   1.278       .  A
C1506      C1804   1.484       .  S
C1507      C1527   1.488       .  S
C1510      C1837   1.484       .  S
C1511      O1512   1.258       .  A
C1511      C1827   1.471       .  S
C1513      C1514   1.405       .  A
C1513      C1518   1.391       .  A
C1513      H1519   1.083       .  S
C1514      C1515   1.404       .  A
C1515      C1516   1.394       .  A
C1515      H1520   1.083       .  S
C1516      C1517   1.405       .  A
C1516      H1521   1.083       .  S
C1517      C1518   1.403       .  A
C1518      H1522   1.083       .  S
C1523      C1524   1.403       .  A
C1523      C1528   1.391       .  A
C1523      H1529   1.082       .  S
C1524      C1525   1.412       .  A
C1525      C1526   1.412       .  A
C1525      H2154   1.083       .  S
C1526      C1527   1.407       .  A
C1526      H1531   1.082       .  S
C1527      C1528   1.407       .  A
C1528      H1532   1.084       .  S
H1530      C2149   1.083       .  S
C1533      C1534   1.400       .  A
C1533      C1538   1.401       .  A
C1533      H1539   1.084       .  S
C1534      C1535   1.407       .  A
C1535      C1536   1.398       .  A
C1535      H1540   1.083       .  S
C1536      C1537   1.402       .  A
C1536      H1541   1.083       .  S
C1537      C1538   1.412       .  A
C1538      H1542   1.083       .  S
C1543      C1544   1.402       .  A
C1543      C1548   1.403       .  A
C1543      H1549   1.082       .  S
C1544      C1545   1.403       .  A
C1545      C1546   1.385       .  A
C1545      H1550   1.084       .  S
C1546      C1547   1.399       .  A
C1546      H1551   1.083       .  S
C1547      C1548   1.409       .  A
C1548      H1552   1.084       .  S
C1553      C1554   1.412       .  A
C1553      C1558   1.401       .  A
C1553      H1559   1.083       .  S
C1554      C1555   1.402       .  A
C1555      C1556   1.396       .  A
C1555      H1560   1.083       .  S
C1556      C1557   1.407       .  A
C1556      H1561   1.084       .  S
C1557      C1558   1.399       .  A
C1558      H1562   1.083       .  S
C1563      C1564   1.404   1_565  A
C1563      C1568   1.393       .  A
C1563      H1569   1.083       .  S
C1564      C1565   1.406       .  A
C1565      C1566   1.394       .  A
C1565      H1570   1.083       .  S
C1566      C1567   1.404       .  A
C1566      H1571   1.083       .  S
C1567      C1568   1.404   1_545  A
C1568      H1572   1.083       .  S
C1573      C1574   1.403       .  A
C1573      C1578   1.407       .  A
C1573      H1579   1.083       .  S
C1574      C1575   1.408       .  A
C1575      C1576   1.392       .  A
C1575      H1580   1.084       .  S
C1576      C1577   1.401       .  A
C1576      H1581   1.083       .  S
C1577      C1578   1.412       .  A
C1578      H1582   1.083       .  S
C1583      C1584   1.412       .  A
C1583      H1589   1.083       .  S
C1584      C1585   1.401       .  A
C1585      H1590   1.083       .  S
C1586      C1587   1.409       .  A
C1586      H1591   1.083       .  S
C1587      C1588   1.405       .  A
C1588      H1592   1.083       .  S
C1593      C1594   1.406       .  A
C1593      C1598   1.397       .  A
C1593      H1599   1.084       .  S
C1594      C1595   1.401       .  A
C1595      C1596   1.402       .  A
C1595      H1600   1.083       .  S
C1596      C1597   1.411       .  A
C1596      H1601   1.084       .  S
C1597      C1598   1.404       .  A
C1598      H1602   1.082       .  S
C1603      C1604   1.396       .  A
C1603      C1608   1.383       .  A
C1603      H1609   1.084       .  S
C1604      C1605   1.409       .  A
C1605      C1606   1.403       .  A
C1605      H1610   1.084       .  S
C1606      C1607   1.401       .  A
C1606      H1611   1.083       .  S
C1607      C1608   1.405       .  A
C1608      H1612   1.084       .  S
C1613      C1614   1.410       .  A
C1613      C1618   1.401       .  A
C1613      H1619   1.083       .  S
C1614      C1615   1.404       .  A
C1615      C1616   1.396       .  A
C1615      H1620   1.083       .  S
C1616      C1617   1.405       .  A
C1616      H1621   1.084       .  S
C1617      C1618   1.401       .  A
C1618      H1622   1.083       .  S
C1623      C1624   1.405       .  A
C1623      C1628   1.399       .  A
C1623      H1629   1.083       .  S
C1624      C1625   1.404       .  A
C1625      C1626   1.389       .  A
C1625      H1630   1.083       .  S
C1626      C1627   1.404       .  A
C1626      H1631   1.083       .  S
C1627      C1628   1.406       .  A
C1628      H1632   1.083       .  S
C1633      C1634   1.407       .  A
C1633      C2262   1.409       .  A
C1633      H1639   1.082       .  S
C1634      C1635   1.410       .  A
C1635      C1636   1.394       .  A
C1635      H1640   1.083       .  S
C1636      C1637   1.400       .  A
C1636      H1641   1.083       .  S
C1637      C2064   1.481       .  S
C1637      C2262   1.409       .  A
C1638      C2257   1.409       .  A
C1638      C2261   1.409       .  A
C1638      H1642   1.083       .  S
C1643      C1644   1.400       .  A
C1643      C1648   1.394       .  A
C1643      H1649   1.084       .  S
C1644      C1645   1.410       .  A
C1645      C1646   1.406       .  A
C1645      H1650   1.083       .  S
C1646      C1647   1.405       .  A
C1646      H1651   1.083       .  S
C1647      C1648   1.411       .  A
C1648      H1652   1.082       .  S
C1653      C1654   1.403       .  A
C1653      C1658   1.401       .  A
C1653      H1659   1.083       .  S
C1654      C1655   1.411       .  A
C1655      C1656   1.401       .  A
C1655      H1660   1.083       .  S
C1656      C1657   1.404       .  A
C1656      H1661   1.083       .  S
C1657      C1658   1.410       .  A
C1658      H1662   1.083       .  S
C1663      C1664   1.397       .  A
C1663      C2292   1.385   1_545  A
C1663      H1669   1.084       .  S
C1664      C1665   1.407       .  A
C1665      C2290   1.403   1_545  A
C1665      H1670   1.084       .  S
C1666      C2289   1.403       .  A
C1666      C1667   1.403       .  A
C1666      H1671   1.083       .  S
C1667      C1668   1.404       .  A
C1668      C2287   1.385       .  A
C1668      H1672   1.084       .  S
C1673      C1674   1.404       .  A
C1673      C1678   1.395       .  A
C1673      H1679   1.084       .  S
C1674      C1675   1.409       .  A
C1675      C1676   1.406       .  A
C1675      H1680   1.082       .  S
C1676      C1677   1.403       .  A
C1676      H1681   1.084       .  S
C1677      C1678   1.404       .  A
C1678      H1682   1.083       .  S
C1683      C1684   1.391       .  A
C1683      C1688   1.389       .  A
C1683      H1689   1.084       .  S
C1684      C1685   1.407       .  A
C1685      C1686   1.391       .  A
C1685      H1690   1.084       .  S
C1686      C1687   1.393       .  A
C1686      H1691   1.083       .  S
C1687      C1688   1.409       .  A
C1688      H1692   1.083       .  S
C1693      C1698   1.393       .  A
C1693      H1699   1.084       .  S
C1694      C1695   1.405       .  A
C1695      C1696   1.411       .  A
C1695      H1700   1.082       .  S
C1696      H1701   1.083       .  S
C1697      C1698   1.401       .  A
C1698      H1702   1.083       .  S
C1703      C1704   1.412       .  A
C1703      C1708   1.412       .  A
C1703      H1709   1.083       .  S
C1704      C1705   1.401       .  A
C1705      C1706   1.393       .  A
C1705      H1710   1.083       .  S
C1706      C1707   1.410       .  A
C1706      H1711   1.084       .  S
C1707      C1708   1.406       .  A
C1708      H1712   1.082       .  S
C1713      C1714   1.405       .  A
C1713      C1718   1.395       .  A
C1713      H1719   1.084       .  S
C1714      C1715   1.403       .  A
C1715      C1716   1.406       .  A
C1715      H1720   1.083       .  S
C1716      C1717   1.410       .  A
C1716      H1721   1.083       .  S
C1717      C1718   1.403       .  A
C1718      H1722   1.084       .  S
C1723      C1724   1.403       .  A
C1723      C1728   1.385       .  A
C1723      H1729   1.084       .  S
C1724      C1725   1.402       .  A
C1725      C1726   1.403       .  A
C1725      H1730   1.082       .  S
C1726      C1727   1.407       .  A
C1726      H1731   1.084       .  S
C1727      C1728   1.397       .  A
C1728      H1732   1.084       .  S
C1733      C1734   1.411       .  A
C1733      C1738   1.400       .  A
C1733      H1739   1.083       .  S
C1734      C1735   1.403       .  A
C1735      C1736   1.401       .  A
C1735      H1740   1.083       .  S
C1736      C1737   1.411       .  A
C1736      H1741   1.083       .  S
C1737      C1738   1.403       .  A
C1738      H1742   1.083       .  S
C1743      C1744   1.405       .  A
C1743      C1748   1.393       .  A
C1743      H1749   1.083       .  S
C1744      C1745   1.405       .  A
C1745      C1746   1.397       .  A
C1745      H1750   1.083       .  S
C1746      C1747   1.405       .  A
C1746      H1751   1.083       .  S
C1747      C1748   1.405       .  A
C1748      H1752   1.084       .  S
C1753      C1754   1.405       .  A
C1753      C1758   1.408       .  A
C1753      H1759   1.083       .  S
C1754      C1755   1.410       .  A
C1755      C1756   1.392       .  A
C1755      H1760   1.083       .  S
C1756      C1757   1.401       .  A
C1756      H1761   1.083       .  S
C1757      C1758   1.412       .  A
C1758      H1762   1.083       .  S
C1763      C1764   1.412       .  A
C1763      C1768   1.410       .  A
C1763      H1769   1.083       .  S
C1764      C1765   1.401       .  A
C1765      C1766   1.391       .  A
C1765      H1770   1.083       .  S
C1766      C1767   1.408       .  A
C1766      H1771   1.084       .  S
C1767      C1768   1.405       .  A
C1768      H1772   1.083       .  S
C1773      C1774   1.410       .  A
C1773      C1778   1.402       .  A
C1773      H1779   1.084       .  S
C1774      C1775   1.404       .  A
C1775      C1776   1.397       .  A
C1775      H1780   1.082       .  S
C1776      C1777   1.405       .  A
C1776      H1781   1.084       .  S
C1777      C1778   1.401       .  A
C1778      H1782   1.083       .  S
C1783      C1784   1.404       .  A
C1783      C1788   1.405       .  A
C1783      H1789   1.083       .  S
C1784      C1785   1.403       .  A
C1785      C1786   1.384       .  A
C1786      C1787   1.401       .  A
C1786      H1791   1.084       .  S
C1787      C1788   1.409       .  A
C1788      H1792   1.082       .  S
C1793      H1799   1.083       .  S
C1794      C1795   1.404       .  A
C1795      C1796   1.397       .  A
C1795      H1800   1.083       .  S
C1796      C1797   1.407       .  A
C1796      H1801   1.084       .  S
C1797      C1798   1.401       .  A
C1803      C1804   1.411       .  A
C1803      H1809   1.083   1_655  S
C1804      C1805   1.400       .  A
C1805      C1806   1.391       .  A
C1805      H1810   1.083       .  S
C1806      C1807   1.409   1_655  A
C1806      H1811   1.084       .  S
C1808      H1812   1.082       .  S
C1813      C1814   1.405       .  A
C1813      C1818   1.409       .  A
C1813      H1819   1.082       .  S
C1814      C1815   1.404       .  A
C1815      C1816   1.391       .  A
C1815      H1820   1.085       .  S
C1816      C1817   1.404       .  A
C1816      H1821   1.082       .  S
C1817      C1818   1.411       .  A
C1818      H1822   1.083       .  S
C1823      C1824   1.404       .  A
C1823      C2452   1.385   1_545  A
C1824      C1825   1.403       .  A
C1825      C2450   1.404   1_545  A
C1825      H1830   1.083       .  S
C1826      C2449   1.404       .  A
C1826      C1827   1.409       .  A
C1826      H1831   1.083       .  S
C1827      C1828   1.400       .  A
C1828      C2447   1.385       .  A
C1828      H1832   1.083       .  S
C1833      C1834   1.400       .  A
C1833      C1838   1.402       .  A
C1833      H1839   1.084       .  S
C1834      C1835   1.406       .  A
C1835      C1836   1.397       .  A
C1835      H1840   1.083       .  S
C1836      C1837   1.403       .  A
C1836      H1841   1.084       .  S
C1837      C1838   1.412       .  A
C1838      H1842   1.082       .  S
C1843      C1844   1.402       .  A
C1843      C1848   1.396       .  A
C1843      H1849   1.083       .  S
C1844      C1845   1.412   1_655  A
C1845      C1846   1.401   1_455  A
C1845      H1850   1.083       .  S
C1846      C1847   1.400       .  A
C1846      H1851   1.083   1_655  S
C1847      C1848   1.407       .  A
C1848      H1852   1.083       .  S
C1853      C1854   1.405       .  A
C1853      C1858   1.395       .  A
C1853      H1859   1.083       .  S
C1854      C1855   1.405       .  A
C1855      C1856   1.393       .  A
C1856      C1857   1.405       .  A
C1857      C1858   1.405       .  A
C1858      H1862   1.083       .  S
C1863      H1869   1.082       .  S
C1864      C1865   1.411   1_455  A
C1865      C1866   1.392       .  A
C1865      H1870   1.083       .  S
C1866      C1867   1.399       .  A
C1866      H1871   1.083       .  S
C1867      C1868   1.411       .  A
C1868      H1872   1.083   1_655  S
O1873      C1888   1.279       .  A
O1873     Al1881   1.963       .  S
C1874      O1884   1.268       .  A
C1874      O1875   1.265       .  A
C1874      C2478   1.473       .  S
O1875     Al1877   1.891       .  S
O1876      C1878   1.255       .  A
O1876     Al1877   1.887       .  S
Al1877     O1885   1.909       .  S
Al1877     O1887   1.884       .  S
Al1877     O1886   1.782       .  S
C1878      O1891   1.261       .  A
C1878      C2458   1.474       .  S
O1879      C1889   1.272       .  A
O1879     Al1881   1.966       .  S
O1880      C1893   1.262   1_655  A
O1880     Al1890   1.920   1_655  S
Al1881     O1894   1.867       .  S
Al1881     O1891   1.924       .  S
Al1881     O1886   1.772       .  S
O1882     Al1890   1.860       .  S
O1883      C1892   1.263       .  A
O1883     Al1890   1.913       .  S
O1887      C1888   1.271       .  A
C1888      C2441   1.486       .  S
C1892      C2468   1.482   1_455  S
C1893      C2448   1.470   1_455  S
O1895      C1910   1.276       .  A
O1895     Al1903   1.951       .  S
C1896      O1906   1.267       .  A
C1896      O1897   1.264       .  A
C1896      C2481   1.473       .  S
O1897     Al1899   1.893       .  S
O1898      C1900   1.256       .  A
O1898     Al1899   1.890       .  S
Al1899     O1907   1.921       .  S
Al1899     O1909   1.895       .  S
Al1899     O1908   1.783       .  S
C1900      O1913   1.261       .  A
C1900      C2401   1.474       .  S
O1901      C1911   1.271       .  A
O1901     Al1903   1.963       .  S
O1902      C1915   1.261   1_655  A
O1902     Al1912   1.920   1_655  S
Al1903     O1916   1.867       .  S
Al1903     O1913   1.920       .  S
Al1903     O1908   1.772       .  S
O1904     Al1912   1.862       .  S
O1905      C1914   1.263       .  A
O1905     Al1912   1.910       .  S
O1909      C1910   1.273       .  A
C1910      C2388   1.487       .  S
C1914      C2418   1.486   1_455  S
C1915      C2408   1.469   1_455  S
O1917      C1932   1.279       .  A
O1917     Al1925   1.950       .  S
C1918      O1928   1.272   1_545  A
C1918      C2368   1.474       .  S
O1919     Al1921   1.888       .  S
O1920      C1922   1.250       .  A
O1920     Al1921   1.879       .  S
Al1921     O1931   1.902       .  S
C1922      O1935   1.257       .  A
C1922      C2421   1.476       .  S
O1923     Al1925   1.947       .  S
O1924      C1937   1.260       .  A
O1924     Al1934   1.904       .  S
Al1925     O1935   1.927       .  S
O1926      C1933   1.253       .  A
O1926     Al1934   1.855       .  S
O1927      C1936   1.256       .  A
O1927     Al1934   1.906       .  S
O1928     Al1934   1.926       .  S
O1929      C1936   1.255   1_545  A
O1930     Al1934   1.786   1_545  S
O1931      C1932   1.278       .  A
C1932      C2491   1.484       .  S
C1933      C2378   1.488       .  S
C1936      C2398   1.485       .  S
C1937      O1938   1.257       .  A
C1937      C2411   1.472       .  S
O1939      C1954   1.278       .  A
O1939     Al1947   1.960       .  S
C1940      O1950   1.266   1_545  A
C1940      C2371   1.474       .  S
O1941     Al1943   1.906       .  S
O1942      C1944   1.254       .  A
O1942     Al1943   1.886       .  S
Al1943     O1953   1.900       .  S
C1944      O1957   1.261       .  A
C1944      C2338   1.476       .  S
O1945     Al1947   1.958       .  S
O1946      C1959   1.260       .  A
O1946     Al1956   1.911       .  S
Al1947     O1957   1.930       .  S
O1948      C1955   1.257       .  A
O1948     Al1956   1.866       .  S
O1949      C1958   1.264       .  A
O1949     Al1956   1.917       .  S
O1950     Al1956   1.916       .  S
O1951      C1958   1.261   1_545  A
O1952     Al1956   1.785   1_545  S
O1953      C1954   1.274       .  A
C1954      C2328   1.490       .  S
C1955      C2391   1.485       .  S
C1958      C2358   1.487       .  S
C1959      O1960   1.258       .  A
C1959      C2348   1.465       .  S
O1961      C1976   1.266       .  A
O1961     Al1969   1.904       .  S
C1962      O1972   1.260       .  A
C1962      O1963   1.272       .  A
C1962      C2308   1.445       .  S
O1963     Al1965   1.927       .  S
O1964      C1966   1.248       .  A
O1964     Al1965   1.869       .  S
Al1965     O1973   1.901       .  S
Al1965     O1975   1.916       .  S
Al1965     O1974   1.787       .  S
C1966      O1979   1.257       .  A
C1966      C2361   1.487       .  S
O1967      C1977   1.267       .  A
O1967     Al1969   1.956       .  S
O1968      C1981   1.269       .  A
O1968     Al1978   1.895       .  S
Al1969     O1982   1.908       .  S
Al1969     O1979   1.915       .  S
Al1969     O1974   1.783       .  S
O1970      C1977   1.254       .  A
O1970     Al1978   1.891       .  S
O1971      C1980   1.250       .  A
O1971     Al1978   1.888       .  S
O1972     Al1978   1.844       .  S
O1973      C1980   1.250       .  A
O1974     Al1978   1.793       .  S
O1975      C1976   1.271       .  A
C1976      C2381   1.486       .  S
C1977      C2318   1.488       .  S
C1980      C2341   1.482       .  S
C1981      O1982   1.271       .  A
O1983      C1998   1.266       .  A
O1983     Al1991   1.900   1_554  S
C1984      O1994   1.261       .  A
C1984      O1985   1.274       .  A
C1984      C2311   1.451       .  S
O1985     Al1987   1.931   1_556  S
O1986      C1988   1.248       .  A
O1986     Al1987   1.870   1_556  S
Al1987     O1995   1.905       .  S
Al1987     O1997   1.924       .  S
Al1987     O1996   1.788   1_554  S
C1988      O2001   1.257       .  A
C1988      C2278   1.488       .  S
O1989      C1999   1.267       .  A
O1989     Al1991   1.958       .  S
O1990      C2003   1.269       .  A
O1990     Al2000   1.895   1_554  S
Al1991     O2004   1.908   1_556  S
Al1991     O2001   1.915       .  S
Al1991     O1996   1.782       .  S
O1992      C1999   1.254       .  A
O1992     Al2000   1.894       .  S
O1993      C2002   1.249       .  A
O1993     Al2000   1.882   1_554  S
O1994     Al2000   1.842       .  S
O1995      C2002   1.251       .  A
O1996     Al2000   1.793       .  S
O1997      C1998   1.273       .  A
C1998      C2268   1.483       .  S
C1999      C2331   1.491       .  S
C2002      C2298   1.482       .  S
C2003      O2004   1.271       .  A
C2003      C2288   1.459       .  S
O2005      C2020   1.277       .  A
O2005     Al2013   1.957   1_556  S
C2006      O2016   1.266       .  A
C2006      O2007   1.267       .  A
C2006      C2248   1.474       .  S
O2007     Al2009   1.905   1_554  S
O2008     Al2009   1.893   1_554  S
Al2009     O2017   1.920       .  S
Al2009     O2019   1.900       .  S
Al2009     O2018   1.780   1_556  S
C2010      C2301   1.476       .  S
O2011      C2021   1.271       .  A
O2011     Al2013   1.958       .  S
O2012      C2025   1.261       .  A
O2012     Al2022   1.916       .  S
Al2013     O2026   1.869       .  S
Al2013     O2023   1.926       .  S
Al2013     O2018   1.772       .  S
O2014      C2021   1.257       .  A
O2014     Al2022   1.869       .  S
O2015      C2024   1.264       .  A
O2015     Al2022   1.915   1_556  S
O2016     Al2022   1.916       .  S
O2017      C2024   1.262       .  A
O2018     Al2022   1.784       .  S
O2019      C2020   1.274       .  A
C2020      C2321   1.488       .  S
C2021      C2258   1.490       .  S
C2024      C2281   1.489       .  S
C2025      O2026   1.258       .  A
C2025      C2291   1.465       .  S
O2027      C2042   1.275       .  A
O2027     Al2035   1.950       .  S
C2028      O2038   1.265       .  A
C2028      O2029   1.264       .  A
C2028      C2251   1.474       .  S
O2029     Al2031   1.902       .  S
O2030     Al2031   1.886       .  S
Al2031     O2039   1.925       .  S
Al2031     O2041   1.899       .  S
Al2031     O2040   1.782       .  S
C2032      C2218   1.473       .  S
O2033      C2043   1.273       .  A
O2033     Al2035   1.963       .  S
O2034      C2047   1.259       .  A
O2034     Al2044   1.910       .  S
Al2035     O2048   1.871       .  S
Al2035     O2045   1.922       .  S
Al2035     O2040   1.770       .  S
O2036      C2043   1.256       .  A
O2036     Al2044   1.865       .  S
O2037      C2046   1.263       .  A
O2037     Al2044   1.904       .  S
O2038     Al2044   1.914       .  S
O2039      C2046   1.264       .  A
O2040     Al2044   1.783       .  S
O2041      C2042   1.272       .  A
C2042      C2208   1.488       .  S
C2043      C2271   1.488       .  S
C2046      C2238   1.482       .  S
C2047      O2048   1.257       .  A
C2047      C2228   1.462       .  S
O2049      C2064   1.282       .  A
O2049     Al2057   1.950       .  S
C2050      O2060   1.275       .  A
C2050      O2051   1.270       .  A
C2050      C2188   1.471       .  S
O2051     Al2053   1.881       .  S
O2052      C2054   1.244       .  A
Al2053     O2061   1.898       .  S
Al2053     O2062   1.786       .  S
C2054      O2067   1.251       .  A
C2054      C2241   1.473       .  S
O2055      C2065   1.266       .  A
O2055     Al2057   1.935       .  S
O2056      C2069   1.258       .  A
O2056     Al2066   1.897       .  S
Al2057     O2070   1.863       .  S
Al2057     O2062   1.777       .  S
O2058      C2065   1.255       .  A
O2058     Al2066   1.865       .  S
O2059      C2068   1.252       .  A
O2059     Al2066   1.906       .  S
O2060     Al2066   1.926       .  S
O2061      C2068   1.249       .  A
O2062     Al2066   1.786       .  S
C2065      C2198   1.482       .  S
C2068      C2221   1.484       .  S
C2069      O2070   1.256       .  A
C2069      C2231   1.464       .  S
O2071     Al2079   1.963       .  S
C2072      O2082   1.266       .  A
C2072      O2073   1.265       .  A
C2072      C2191   1.470       .  S
O2073     Al2075   1.892       .  S
O2074      C2076   1.253       .  A
Al2075     O2083   1.907       .  S
Al2075     O2084   1.779       .  S
C2076      O2089   1.261       .  A
C2076      C2158   1.472       .  S
O2077      C2087   1.272       .  A
O2077     Al2079   1.965       .  S
O2078      C2091   1.260       .  A
O2078     Al2088   1.914       .  S
Al2079     O2092   1.869       .  S
Al2079     O2084   1.773       .  S
O2080      C2087   1.257       .  A
O2080     Al2088   1.865       .  S
O2081      C2090   1.264       .  A
O2081     Al2088   1.914       .  S
O2082     Al2088   1.919       .  S
O2083      C2090   1.259       .  A
O2084     Al2088   1.785       .  S
O2085      C2086   1.271       .  A
C2086      C2148   1.490       .  S
C2087      C2211   1.488       .  S
C2090      C2178   1.482       .  S
C2091      O2092   1.257       .  A
O2093      C2108   1.280       .  A
O2093     Al2101   1.950       .  S
C2094      O2104   1.274       .  A
C2094      O2095   1.271       .  A
C2094      C2141   1.468       .  S
O2095     Al2097   1.886       .  S
O2096      C2098   1.247       .  A
O2096     Al2097   1.872       .  S
Al2097     O2105   1.891       .  S
Al2097     O2107   1.900       .  S
Al2097     O2106   1.781       .  S
C2098      O2111   1.255       .  A
C2098      C2181   1.473       .  S
O2099      C2109   1.263       .  A
O2099     Al2101   1.928       .  S
O2100      C2113   1.260       .  A
O2100     Al2110   1.896       .  S
Al2101     O2114   1.870       .  S
Al2101     O2111   1.926       .  S
Al2101     O2106   1.777       .  S
O2102      C2109   1.256       .  A
O2102     Al2110   1.871       .  S
O2103      C2112   1.255       .  A
O2103     Al2110   1.916       .  S
O2104     Al2110   1.922       .  S
O2105      C2112   1.249       .  A
O2106     Al2110   1.786       .  S
O2107      C2108   1.278       .  A
C2108      C2201   1.485       .  S
C2109      C2438   1.479       .  S
C2112      C2161   1.484       .  S
C2113      O2114   1.259       .  A
C2113      C2171   1.467       .  S
O2115      C2130   1.280       .  A
O2115     Al2123   1.953       .  S
C2116      O2126   1.273       .  A
C2116      O2117   1.269       .  A
C2116      C2138   1.470       .  S
O2117     Al2119   1.885       .  S
O2118      C2120   1.248       .  A
O2118     Al2119   1.872       .  S
Al2119     O2127   1.901       .  S
Al2119     O2129   1.898       .  S
Al2119     O2128   1.786       .  S
C2120      O2133   1.256       .  A
C2120      C2471   1.474       .  S
O2121      C2131   1.266       .  A
O2121     Al2123   1.943       .  S
O2122      C2135   1.260       .  A
O2122     Al2132   1.900       .  S
Al2123     O2136   1.868       .  S
Al2123     O2133   1.927       .  S
Al2123     O2128   1.778       .  S
O2124      C2131   1.255       .  A
O2124     Al2132   1.862       .  S
O2125      C2134   1.256       .  A
O2125     Al2132   1.911       .  S
O2126     Al2132   1.921       .  S
O2127      C2134   1.252       .  A
O2128     Al2132   1.785       .  S
O2129      C2130   1.278       .  A
C2130      C2428   1.484       .  S
C2131      C2151   1.488       .  S
C2134      C2461   1.484       .  S
C2135      O2136   1.258       .  A
C2135      C2451   1.471       .  S
C2137      C2138   1.405       .  A
C2137      C2142   1.391       .  A
C2137      H2143   1.083       .  S
C2138      C2139   1.404       .  A
C2139      C2140   1.394       .  A
C2139      H2144   1.083       .  S
C2140      C2141   1.405       .  A
C2140      H2145   1.083       .  S
C2141      C2142   1.403       .  A
C2142      H2146   1.083       .  S
C2147      C2148   1.403       .  A
C2147      C2152   1.391       .  A
C2147      H2153   1.082       .  S
C2148      C2149   1.412       .  A
C2149      C2150   1.412       .  A
C2150      C2151   1.407       .  A
C2150      H2155   1.082       .  S
C2151      C2152   1.407       .  A
C2152      H2156   1.084       .  S
C2157      C2158   1.400       .  A
C2157      C2162   1.401       .  A
C2157      H2163   1.084       .  S
C2158      C2159   1.407       .  A
C2159      C2160   1.398       .  A
C2159      H2164   1.083       .  S
C2160      C2161   1.402       .  A
C2160      H2165   1.083       .  S
C2161      C2162   1.412       .  A
C2162      H2166   1.083       .  S
C2167      C2168   1.402       .  A
C2167      C2172   1.403       .  A
C2167      H2173   1.082       .  S
C2168      C2169   1.403       .  A
C2169      C2170   1.385       .  A
C2169      H2174   1.084       .  S
C2170      C2171   1.399       .  A
C2170      H2175   1.083       .  S
C2171      C2172   1.409       .  A
C2172      H2176   1.084       .  S
C2177      C2178   1.412       .  A
C2177      C2182   1.401       .  A
C2177      H2183   1.083       .  S
C2178      C2179   1.402       .  A
C2179      C2180   1.396       .  A
C2179      H2184   1.083       .  S
C2180      C2181   1.407       .  A
C2180      H2185   1.084       .  S
C2181      C2182   1.399       .  A
C2182      H2186   1.083       .  S
C2187      C2188   1.404       .  A
C2187      C2192   1.393       .  A
C2187      H2193   1.083       .  S
C2188      C2189   1.406       .  A
C2189      C2190   1.394       .  A
C2189      H2194   1.083       .  S
C2190      C2191   1.404       .  A
C2190      H2195   1.083       .  S
C2191      C2192   1.404       .  A
C2192      H2196   1.083       .  S
C2197      C2198   1.403       .  A
C2197      C2202   1.407       .  A
C2197      H2203   1.083       .  S
C2198      C2199   1.408       .  A
C2199      C2200   1.392       .  A
C2199      H2204   1.084       .  S
C2200      C2201   1.401       .  A
C2200      H2205   1.083       .  S
C2201      C2202   1.412       .  A
C2202      H2206   1.083       .  S
C2207      C2208   1.412       .  A
C2207      H2213   1.083       .  S
C2208      C2209   1.401       .  A
C2209      H2214   1.083       .  S
C2210      C2211   1.409       .  A
C2210      H2215   1.083       .  S
C2211      C2212   1.405       .  A
C2212      H2216   1.083       .  S
C2217      C2218   1.406       .  A
C2217      C2222   1.397       .  A
C2217      H2223   1.084       .  S
C2218      C2219   1.401       .  A
C2219      C2220   1.402       .  A
C2219      H2224   1.083       .  S
C2220      C2221   1.411       .  A
C2220      H2225   1.084       .  S
C2221      C2222   1.404       .  A
C2222      H2226   1.082       .  S
C2227      C2228   1.396       .  A
C2227      C2232   1.383       .  A
C2227      H2233   1.084       .  S
C2228      C2229   1.409       .  A
C2229      C2230   1.403       .  A
C2229      H2234   1.084       .  S
C2230      C2231   1.401       .  A
C2230      H2235   1.083       .  S
C2231      C2232   1.405       .  A
C2232      H2236   1.084       .  S
C2237      C2238   1.410       .  A
C2237      C2242   1.401       .  A
C2237      H2243   1.083       .  S
C2238      C2239   1.404       .  A
C2239      C2240   1.396       .  A
C2239      H2244   1.083       .  S
C2240      C2241   1.405       .  A
C2240      H2245   1.084       .  S
C2241      C2242   1.401       .  A
C2242      H2246   1.083       .  S
C2247      C2248   1.405       .  A
C2247      C2252   1.399       .  A
C2247      H2253   1.083       .  S
C2248      C2249   1.404       .  A
C2249      C2250   1.389       .  A
C2249      H2254   1.083       .  S
C2250      C2251   1.404       .  A
C2250      H2255   1.083       .  S
C2251      C2252   1.406       .  A
C2252      H2256   1.083       .  S
C2257      C2258   1.407       .  A
C2257      H2263   1.082       .  S
C2258      C2259   1.410       .  A
C2259      C2260   1.394       .  A
C2259      H2264   1.083       .  S
C2260      C2261   1.400       .  A
C2260      H2265   1.083       .  S
C2262      H2266   1.083       .  S
C2267      C2268   1.400       .  A
C2267      C2272   1.394       .  A
C2267      H2273   1.084       .  S
C2268      C2269   1.410       .  A
C2269      C2270   1.406       .  A
C2269      H2274   1.083       .  S
C2270      C2271   1.405       .  A
C2270      H2275   1.083       .  S
C2271      C2272   1.411       .  A
C2272      H2276   1.082       .  S
C2277      C2278   1.403       .  A
C2277      C2282   1.401       .  A
C2277      H2283   1.083       .  S
C2278      C2279   1.411       .  A
C2279      C2280   1.401       .  A
C2279      H2284   1.083       .  S
C2280      C2281   1.404       .  A
C2280      H2285   1.083       .  S
C2281      C2282   1.410       .  A
C2282      H2286   1.083       .  S
C2287      C2288   1.397       .  A
C2287      H2293   1.084       .  S
C2288      C2289   1.407       .  A
C2289      H2294   1.084       .  S
C2290      C2291   1.403       .  A
C2290      H2295   1.083       .  S
C2291      C2292   1.404       .  A
C2292      H2296   1.084       .  S
C2297      C2298   1.404       .  A
C2297      C2302   1.395       .  A
C2297      H2303   1.084       .  S
C2298      C2299   1.409       .  A
C2299      C2300   1.406       .  A
C2299      H2304   1.082       .  S
C2300      C2301   1.403       .  A
C2300      H2305   1.084       .  S
C2301      C2302   1.404       .  A
C2302      H2306   1.083       .  S
C2307      C2308   1.391       .  A
C2307      C2312   1.389       .  A
C2307      H2313   1.084       .  S
C2308      C2309   1.407       .  A
C2309      C2310   1.391       .  A
C2309      H2314   1.084       .  S
C2310      C2311   1.393       .  A
C2310      H2315   1.083       .  S
C2311      C2312   1.409       .  A
C2312      H2316   1.083       .  S
C2317      C2322   1.393       .  A
C2317      H2323   1.084       .  S
C2318      C2319   1.405       .  A
C2319      C2320   1.411       .  A
C2319      H2324   1.082       .  S
C2320      H2325   1.083       .  S
C2321      C2322   1.401       .  A
C2322      H2326   1.083       .  S
C2327      C2328   1.412       .  A
C2327      C2332   1.412       .  A
C2327      H2333   1.083       .  S
C2328      C2329   1.401       .  A
C2329      C2330   1.393       .  A
C2329      H2334   1.083       .  S
C2330      C2331   1.410       .  A
C2330      H2335   1.084       .  S
C2331      C2332   1.406       .  A
C2332      H2336   1.082       .  S
C2337      C2338   1.405       .  A
C2337      C2342   1.395       .  A
C2337      H2343   1.084       .  S
C2338      C2339   1.403       .  A
C2339      C2340   1.406       .  A
C2339      H2344   1.083       .  S
C2340      C2341   1.410       .  A
C2340      H2345   1.083       .  S
C2341      C2342   1.403       .  A
C2342      H2346   1.084       .  S
C2347      C2348   1.403       .  A
C2347      C2352   1.385       .  A
C2347      H2353   1.084       .  S
C2348      C2349   1.402       .  A
C2349      C2350   1.403       .  A
C2349      H2354   1.082       .  S
C2350      C2351   1.407       .  A
C2350      H2355   1.084       .  S
C2351      C2352   1.397       .  A
C2352      H2356   1.084       .  S
C2357      C2358   1.411       .  A
C2357      C2362   1.400       .  A
C2357      H2363   1.083   1_565  S
C2358      C2359   1.403       .  A
C2359      C2360   1.401       .  A
C2359      H2364   1.083       .  S
C2360      C2361   1.411       .  A
C2360      H2365   1.083       .  S
C2361      C2362   1.403       .  A
C2362      H2366   1.083       .  S
C2367      C2368   1.405   1_565  A
C2367      C2372   1.393       .  A
C2367      H2373   1.083       .  S
C2368      C2369   1.405       .  A
C2369      C2370   1.397       .  A
C2369      H2374   1.083       .  S
C2370      C2371   1.405       .  A
C2370      H2375   1.083       .  S
C2371      C2372   1.405   1_545  A
C2372      H2376   1.084       .  S
C2377      C2378   1.405       .  A
C2377      C2382   1.408       .  A
C2377      H2383   1.083       .  S
C2378      C2379   1.410       .  A
C2379      C2380   1.392       .  A
C2379      H2384   1.083       .  S
C2380      C2381   1.401       .  A
C2380      H2385   1.083       .  S
C2381      C2382   1.412       .  A
C2382      H2386   1.083       .  S
C2387      C2388   1.412       .  A
C2387      C2392   1.410       .  A
C2387      H2393   1.083       .  S
C2388      C2389   1.401       .  A
C2389      C2390   1.391       .  A
C2389      H2394   1.083       .  S
C2390      C2391   1.408       .  A
C2390      H2395   1.084       .  S
C2391      C2392   1.405       .  A
C2392      H2396   1.083   1_565  S
C2397      C2398   1.410       .  A
C2397      C2402   1.402       .  A
C2397      H2403   1.084   1_565  S
C2398      C2399   1.404       .  A
C2399      C2400   1.397       .  A
C2399      H2404   1.082       .  S
C2400      C2401   1.405       .  A
C2400      H2405   1.084       .  S
C2401      C2402   1.401       .  A
C2402      H2406   1.083       .  S
C2407      C2408   1.404       .  A
C2407      C2412   1.405       .  A
C2407      H2413   1.083       .  S
C2408      C2409   1.403       .  A
C2409      C2410   1.384       .  A
C2410      C2411   1.401       .  A
C2410      H2415   1.084       .  S
C2411      C2412   1.409       .  A
C2412      H2416   1.082       .  S
C2417      H2423   1.083       .  S
C2418      C2419   1.404       .  A
C2419      C2420   1.397       .  A
C2419      H2424   1.083       .  S
C2420      C2421   1.407       .  A
C2420      H2425   1.084       .  S
C2421      C2422   1.401       .  A
C2427      C2428   1.411       .  A
C2427      H2433   1.083   1_655  S
C2428      C2429   1.400       .  A
C2429      C2430   1.391       .  A
C2429      H2434   1.083       .  S
C2430      C2431   1.409   1_655  A
C2430      H2435   1.084       .  S
C2432      H2436   1.082       .  S
C2437      C2438   1.405       .  A
C2437      C2442   1.409       .  A
C2437      H2443   1.082       .  S
C2438      C2439   1.404       .  A
C2439      C2440   1.391       .  A
C2439      H2444   1.085       .  S
C2440      C2441   1.404       .  A
C2440      H2445   1.082       .  S
C2441      C2442   1.411       .  A
C2442      H2446   1.083       .  S
C2447      C2448   1.404       .  A
C2448      C2449   1.403       .  A
C2449      H2454   1.083       .  S
C2450      C2451   1.409       .  A
C2450      H2455   1.083       .  S
C2451      C2452   1.400       .  A
C2452      H2456   1.083       .  S
C2457      C2458   1.400       .  A
C2457      C2462   1.402       .  A
C2457      H2463   1.084       .  S
C2458      C2459   1.406       .  A
C2459      C2460   1.397       .  A
C2459      H2464   1.083       .  S
C2460      C2461   1.403       .  A
C2460      H2465   1.084       .  S
C2461      C2462   1.412       .  A
C2462      H2466   1.082       .  S
C2467      C2468   1.402       .  A
C2467      C2472   1.396       .  A
C2467      H2473   1.083       .  S
C2468      C2469   1.412   1_655  A
C2469      C2470   1.401   1_455  A
C2469      H2474   1.083       .  S
C2470      C2471   1.400       .  A
C2470      H2475   1.083   1_655  S
C2471      C2472   1.407       .  A
C2472      H2476   1.083       .  S
C2477      C2478   1.405       .  A
C2477      C2482   1.395       .  A
C2477      H2483   1.083       .  S
C2478      C2479   1.405       .  A
C2479      C2480   1.393       .  A
C2480      C2481   1.405       .  A
C2481      C2482   1.405       .  A
C2482      H2486   1.083       .  S
C2487      H2493   1.082       .  S
C2488      C2489   1.411   1_455  A
C2489      C2490   1.392       .  A
C2489      H2494   1.083       .  S
C2490      C2491   1.399       .  A
C2490      H2495   1.083       .  S
C2491      C2492   1.411       .  A
C2492      H2496   1.083   1_655  S
