geometry optimzed in LAMMPS
_audit_creation_date              2020-12-01 
_audit_creation_method            'lammps2cif' 
_symmetry_space_group_name_H-M    'P1' 
_symmetry_Int_Tables_number       1 
_symmetry_cell_setting            triclinic 
loop_ 
_symmetry_equiv_pos_as_xyz 
  x,y,z 
_cell_length_a                    56.33379534 
_cell_length_b                    56.04773679263193 
_cell_length_c                    45.04736395252705 
_cell_angle_alpha                 90.37033766628558 
_cell_angle_beta                  89.67895705619631 
_cell_angle_gamma                 89.6527878379682 
loop_ 
_atom_site_label 
_atom_site_type_symbol 
_atom_site_fract_x 
_atom_site_fract_y 
_atom_site_fract_z 
_atom_site_charge 
Fe1        Fe  0.84320352  0.26311172  0.23157211     1.65800
Fe2        Fe  0.89187616  0.23846083  0.26412891     1.73200
Fe3        Fe  0.85670280  0.20407672  0.21954949     1.54400
O4          O  0.82156103  0.20467139  0.23496307    -0.81900
O5          O  0.91325004  0.21805520  0.23653553    -0.80200
O6          O  0.81259605  0.24353162  0.23500198    -0.84400
O7          O  0.84401320  0.25856330  0.18646276    -0.79200
O8          O  0.86663124  0.18394832  0.25612038    -0.81000
O9          O  0.90407793  0.26811022  0.24227729    -0.83800
C10         C  0.84475196  0.24037691  0.16970224     0.97000
C11         C  0.80669338  0.22181208  0.23738796     1.04400
O12         O  0.86389734  0.23516540  0.23845186    -1.12700
O13         O  0.87434845  0.25905498  0.29549535    -0.75200
O14         O  0.83988549  0.27087072  0.27626063    -0.78700
O15         O  0.84730013  0.21929416  0.17938757    -0.79400
C16         C  0.85419927  0.26909650  0.29772071     0.95900
O17         O  0.87131707  0.28624107  0.22616144    -0.77300
O18         O  0.88314169  0.20896864  0.28861032    -0.82500
C19         C  0.91098921  0.20501309  0.21361057     0.98500
C20         C  0.87650021  0.18829227  0.28084816     1.04400
O21         O  0.89085910  0.20028753  0.20241776    -0.78200
C22         C  0.89364587  0.28523451  0.22950640     1.02700
Fe23       Fe  0.67077323  0.26340473  0.28139058     1.65800
Fe24       Fe  0.61955234  0.23890133  0.25688506     1.73200
Fe25       Fe  0.65966485  0.20420516  0.29306067     1.54400
O26         O  0.69532310  0.20728246  0.27992248    -0.81900
O27         O  0.60109181  0.22575894  0.29244611    -0.80200
O28         O  0.69991749  0.24502647  0.26601832    -0.84400
O29         O  0.67839664  0.25588635  0.32523374    -0.79200
O30         O  0.65359492  0.18620089  0.25382761    -0.81000
O31         O  0.61222723  0.27300685  0.27263238    -0.83800
C32         C  0.67338511  0.23901886  0.34288019     0.97000
C33         C  0.70755830  0.22380808  0.26817363     1.04400
O34         O  0.65011387  0.23546963  0.27706866    -1.12700
O35         O  0.63607447  0.25191445  0.22007031    -0.75200
O36         O  0.66543243  0.27440418  0.23776172    -0.78700
O37         O  0.66604473  0.21892028  0.33394090    -0.79400
C38         C  0.65295429  0.26649988  0.21641405     0.95900
O39         O  0.64390501  0.28479560  0.29776300    -0.77300
O40         O  0.62139859  0.20532719  0.23779308    -0.82500
C41         C  0.60492341  0.20733180  0.30789929     0.98500
C42         C  0.63574475  0.18780612  0.23701613     1.04400
O43         O  0.62516649  0.19690234  0.30810376    -0.78200
C44         C  0.62245781  0.28728745  0.29022689     1.02700
Fe45       Fe  0.84455202  0.27290779  0.48224706     1.65800
Fe46       Fe  0.89113614  0.29914168  0.01253621     1.73200
Fe47       Fe  0.85590366  0.33163881  0.46896706     1.54400
O48         O  0.84475180  0.31572085  0.42965802    -0.81900
O49         O  0.88142632  0.32846516  0.03740261    -0.80200
O50         O  0.84466193  0.27653077  0.43705404    -0.84400
O51         O  0.81361699  0.29233807  0.48617510    -0.79200
O52         O  0.88902522  0.33502329  0.44959756    -0.81000
O53         O  0.87571223  0.27797930  0.04451553    -0.83800
C54         C  0.80735903  0.31400273  0.48924942     0.97000
C55         C  0.84327165  0.29440257  0.42008470     1.04400
O56         O  0.86468002  0.30105597  0.48767519    -1.12700
O57         O  0.90596587  0.26903685  0.48891830    -0.75200
O58         O  0.87294970  0.24966628  0.47668789    -0.78700
O59         O  0.82178925  0.33121927  0.48679145    -0.79400
C60         C  0.89538676  0.25118935  0.47800258     0.95900
O61         O  0.84045721  0.26631487  0.02797504    -0.77300
O62         O  0.91341985  0.31922755  0.48298350    -0.82500
C63         C  0.87335199  0.34875528  0.03008826     0.98500
C64         C  0.90977066  0.33087404  0.45933039     1.04400
O65         O  0.86331892  0.35267555  0.00537309    -0.78200
C66         C  0.85589585  0.26781331  0.04823883     1.02700
Fe67       Fe  0.67191115  0.27384563  0.02906361     1.65800
Fe68       Fe  0.62378064  0.29989851  0.00067127     1.73200
Fe69       Fe  0.65881158  0.33100323  0.04775566     1.54400
O70         O  0.66992182  0.31243327  0.08556707    -0.81900
O71         O  0.63804482  0.32829002  0.47567617    -0.80200
O72         O  0.66719909  0.27398765  0.07373526    -0.84400
O73         O  0.70246726  0.29348926  0.03243298    -0.79200
O74         O  0.62537847  0.33249096  0.06657997    -0.81000
O75         O  0.64311334  0.27760040  0.46799287    -0.83800
C76         C  0.70768446  0.31497704  0.02691496     0.97000
C77         C  0.66818373  0.29053948  0.09290245     1.04400
O78         O  0.65147521  0.30172050  0.02590158    -1.12700
O79         O  0.61087262  0.27082967  0.02320887    -0.75200
O80         O  0.64413396  0.24961858  0.02648184    -0.78700
O81         O  0.69279005  0.33196367  0.02962354    -0.79400
C82         C  0.62167036  0.25139323  0.02850841     0.95900
O83         O  0.68009108  0.27124173  0.48338635    -0.77300
O84         O  0.60322179  0.32162336  0.02814361    -0.82500
C85         C  0.64160049  0.34900222  0.48607086     0.98500
C86         C  0.60541581  0.33107247  0.05369266     1.04400
O87         O  0.64703811  0.35305069  0.01353982    -0.78200
C88         C  0.66434740  0.27062545  0.46348573     1.02700
Fe89       Fe  0.50781775  0.42907852  0.35973620     1.65800
Fe90       Fe  0.53337202  0.38198956  0.39200742     1.73200
Fe91       Fe  0.56628898  0.41945816  0.34965044     1.54400
O92         O  0.55044085  0.42960081  0.30958134    -0.81900
O93         O  0.56057219  0.39316269  0.41901590    -0.80200
O94         O  0.51163973  0.42241578  0.31510690    -0.84400
O95         O  0.52603643  0.46058174  0.35593834    -0.79200
O96         O  0.57170168  0.38595937  0.33130680    -0.81000
O97         O  0.50962924  0.39881842  0.42107296    -0.83800
C98         C  0.54609361  0.46795305  0.36453664     0.97000
C99         C  0.52991359  0.42549739  0.29894282     1.04400
O100        O  0.53604558  0.41005070  0.36722207    -1.12700
O101        O  0.50614273  0.36821836  0.36661773    -0.75200
O102        O  0.48429147  0.40095191  0.36211035    -0.78700
O103        O  0.56353054  0.45373207  0.36744560    -0.79400
C104        C  0.48668562  0.37849956  0.36050833     0.95900
O105        O  0.50370560  0.43589103  0.40447741    -0.77300
O106        O  0.55711216  0.36214318  0.36639530    -0.82500
C107        C  0.58117140  0.40022860  0.41177976     0.98500
C108        C  0.56951441  0.36553584  0.34312734     1.04400
O109        O  0.58581778  0.40930678  0.38658885    -0.78200
C110        C  0.50299816  0.42040430  0.42493034     1.02700
Fe111      Fe  0.50383838  0.60697622  0.40893971     1.65800
Fe112      Fe  0.53168656  0.65483097  0.38097574     1.73200
Fe113      Fe  0.56244122  0.61474842  0.42287302     1.54400
O114        O  0.54533146  0.60394230  0.46166463    -0.81900
O115        O  0.55975760  0.64350846  0.35536819    -0.80200
O116        O  0.50663326  0.60888654  0.45401449    -0.84400
O117        O  0.52113344  0.57451180  0.40720903    -0.79200
O118        O  0.56783785  0.64762425  0.44305696    -0.81000
O119        O  0.50934535  0.64062173  0.34904389    -0.83800
C120        C  0.54197303  0.56751482  0.40075416     0.97000
C121        C  0.52405702  0.60563783  0.47122194     1.04400
O122        O  0.53276186  0.62559822  0.40432132    -1.12700
O123        O  0.50343020  0.66879999  0.40468796    -0.75200
O124        O  0.48152831  0.63643644  0.41110765    -0.78700
O125        O  0.55988730  0.58101758  0.40350368    -0.79400
C126        C  0.48404293  0.65891173  0.41168888     0.95900
O127        O  0.49963079  0.60411234  0.36395126    -0.77300
O128        O  0.55397807  0.67303703  0.40942824    -0.82500
C129        C  0.57973603  0.63482310  0.36251531     0.98500
C130        C  0.56521945  0.66870632  0.43317495     1.04400
O131        O  0.58362450  0.62498657  0.38735820    -0.78200
C132        C  0.50072179  0.62007392  0.34427607     1.02700
Fe133      Fe  0.50121046  0.43094768  0.11030345     1.65800
Fe134      Fe  0.47662964  0.38019993  0.13642808     1.73200
Fe135      Fe  0.44233951  0.41963919  0.09797195     1.54400
O136        O  0.44348007  0.45383373  0.11539934    -0.81900
O137        O  0.45565695  0.36099987  0.10784042    -0.80200
O138        O  0.48204409  0.46211561  0.11458010    -0.84400
O139        O  0.49708767  0.43123621  0.06465094    -0.79200
O140        O  0.42313842  0.40945532  0.13505438    -0.81000
O141        O  0.50546548  0.36920612  0.11153838    -0.83800
C142        C  0.47884997  0.43144451  0.04807085     0.97000
C143        C  0.46051973  0.46834417  0.11766399     1.04400
O144        O  0.47327184  0.41030429  0.11492692    -1.12700
O145        O  0.49800428  0.39499262  0.16850452    -0.75200
O146        O  0.50738743  0.43199299  0.15578453    -0.78700
O147        O  0.45778003  0.43000570  0.05820628    -0.79400
C148        C  0.50682175  0.41521230  0.17466572     0.95900
O149        O  0.52511821  0.40303903  0.10502796    -0.77300
O150        O  0.44793398  0.38809931  0.16309420    -0.82500
C151        C  0.44204297  0.36554038  0.08632629     0.98500
C152        C  0.42793742  0.39790151  0.15844108     1.04400
O153        O  0.43693700  0.38669419  0.07874360    -0.55800
C154        C  0.52390229  0.38046838  0.10388035     1.02700
Fe155      Fe  0.49792137  0.60382639  0.16022895     1.65800
Fe156      Fe  0.47229363  0.65461394  0.13411086     1.73200
Fe157      Fe  0.43855791  0.61541146  0.17371334     1.54400
O158        O  0.44123411  0.57976243  0.16081525    -0.81900
O159        O  0.45696091  0.67439767  0.16757575    -0.80200
O160        O  0.47944325  0.57371962  0.15029407    -0.84400
O161        O  0.49232409  0.60030157  0.20530434    -0.79200
O162        O  0.41920687  0.62177845  0.13575185    -0.81000
O163        O  0.50469606  0.66382838  0.15149712    -0.83800
C164        C  0.47496943  0.60419872  0.22282572     0.97000
C165        C  0.45820504  0.56667216  0.15153076     1.04400
O166        O  0.46953955  0.62455227  0.15595661    -1.12700
O167        O  0.48737981  0.63734766  0.09826041    -0.75200
O168        O  0.50655961  0.60535486  0.11551046    -0.78700
O169        O  0.45420431  0.60923562  0.21398779    -0.79400
C170        C  0.50010945  0.61879524  0.09441319     0.95900
O171        O  0.52064347  0.63111040  0.17056754    -0.77300
O172        O  0.43999081  0.65071518  0.11416256    -0.82500
C173        C  0.43973804  0.67047486  0.18508763     0.98500
C174        C  0.42164152  0.63792694  0.11643872     1.04400
O175        O  0.43112813  0.64976945  0.18857666    -0.78200
C176        C  0.52099497  0.65325783  0.16550895     1.02700
Fe177      Fe  0.34225697  0.76917336  0.49090195     1.65800
Fe178      Fe  0.39050205  0.74212001  0.01761183     1.73200
Fe179      Fe  0.35193910  0.71091605  0.47605950     1.54400
O180        O  0.31911297  0.71227675  0.49739487    -0.81900
O181        O  0.40934565  0.72083064  0.48899212    -0.80200
O182        O  0.31083152  0.75045883  0.48939603    -0.84400
O183        O  0.34666611  0.76693853  0.44592039    -0.79200
O184        O  0.36356405  0.68906083  0.01076111    -0.81000
O185        O  0.40307229  0.77129208  0.49585781    -0.83800
C186        C  0.34330346  0.74921047  0.42886034     0.97000
C187        C  0.30482137  0.72991436  0.49825503     1.04400
O188        O  0.36169117  0.74066256  0.49533899    -1.12700
O189        O  0.37522366  0.76440798  0.04950096    -0.75200
O190        O  0.33851844  0.77313991  0.03431180    -0.78700
O191        O  0.33887377  0.72840109  0.43852752    -0.79400
C192        C  0.35440030  0.77256635  0.05414245     0.95900
O193        O  0.37027105  0.79293826  0.49174866    -0.77300
O194        O  0.38067921  0.71363800  0.04324536    -0.82500
C195        C  0.40519051  0.71047341  0.46435082     0.98500
C196        C  0.37338969  0.69317036  0.03553129     1.04400
O197        O  0.38424853  0.70778103  0.45440901    -0.78200
C198        C  0.39265627  0.79083098  0.49030298     1.02700
Fe199      Fe  0.16511373  0.76359738  0.03537481     1.65800
Fe200      Fe  0.11654353  0.73697549  0.00589650     1.73200
Fe201      Fe  0.15672477  0.70349391  0.04396904     1.54400
O202        O  0.19267908  0.70896221  0.03559659    -0.81900
O203        O  0.09719319  0.72038264  0.03848751    -0.80200
O204        O  0.19610650  0.74720493  0.02354310    -0.84400
O205        O  0.16982184  0.75556255  0.07985693    -0.79200
O206        O  0.15440765  0.68651401  0.00329860    -0.81000
O207        O  0.10569756  0.76951955  0.02382716    -0.83800
C208        C  0.16474959  0.73798743  0.09642053     0.97000
C209        C  0.20485953  0.72658568  0.02691195     1.04400
O210        O  0.14622347  0.73469078  0.02833914    -1.12700
O211        O  0.13367757  0.75344595  0.47041492    -0.75200
O212        O  0.16326055  0.77422004  0.49083234    -0.78700
O213        O  0.15900176  0.71762187  0.08629237    -0.79400
C214        C  0.15109335  0.76763467  0.46856145     0.95900
O215        O  0.13650510  0.78365924  0.04876326    -0.77300
O216        O  0.12300245  0.70470705  0.48418189    -0.82500
C217        C  0.10166365  0.70140865  0.05269841     0.98500
C218        C  0.13762020  0.68741779  0.48522909     1.04400
O219        O  0.12252361  0.69283249  0.05435208    -0.78200
C220        C  0.11493385  0.78454790  0.04136514     1.02700
Fe221      Fe  0.34000322  0.77558481  0.23980221     1.65800
Fe222      Fe  0.39078903  0.80086352  0.26518245     1.73200
Fe223      Fe  0.35151419  0.83503468  0.22599163     1.54400
O224        O  0.34418234  0.81888021  0.18582031    -0.81900
O225        O  0.38413381  0.83120244  0.28936315    -0.80200
O226        O  0.33801378  0.78011390  0.19432216    -0.84400
O227        O  0.30938384  0.79448821  0.24742302    -0.79200
O228        O  0.38537192  0.84203268  0.20925501    -0.81000
O229        O  0.37540846  0.78194286  0.29897275    -0.83800
C230        C  0.30260750  0.81600995  0.24738053     0.97000
C231        C  0.34041995  0.79769022  0.17683394     1.04400
O232        O  0.36070136  0.80392888  0.24368561    -1.12700
O233        O  0.40110086  0.77034674  0.24310203    -0.75200
O234        O  0.36747738  0.75175464  0.23216196    -0.78700
O235        O  0.31615691  0.83305714  0.24006092    -0.79400
C236        C  0.38991318  0.75255838  0.23311384     0.95900
O237        O  0.34024249  0.76848224  0.28490085    -0.77300
O238        O  0.41036094  0.81956340  0.23475551    -0.82500
C239        C  0.37231576  0.85034635  0.28632079     0.98500
C240        C  0.40634715  0.83500092  0.21504771     1.04400
O241        O  0.35896565  0.85444863  0.26424349    -0.78200
C242        C  0.35599745  0.77149106  0.30457921     1.02700
Fe243      Fe  0.16733328  0.77241999  0.28294306     1.65800
Fe244      Fe  0.11769832  0.79728831  0.25512749     1.73200
Fe245      Fe  0.15470820  0.83091445  0.29744532     1.54400
O246        O  0.16479205  0.81429761  0.33702963    -0.81900
O247        O  0.12696342  0.82559650  0.22921734    -0.80200
O248        O  0.16484715  0.77503116  0.32828967    -0.84400
O249        O  0.19841906  0.79191824  0.28261573    -0.79200
O250        O  0.12146818  0.83519096  0.31601919    -0.81000
O251        O  0.13361620  0.77483901  0.22386392    -0.83800
C252        C  0.20406530  0.81360201  0.27914694     0.97000
C253        C  0.16544623  0.79273239  0.34601193     1.04400
O254        O  0.14662002  0.80038886  0.27848786    -1.12700
O255        O  0.10615694  0.76917586  0.27982215    -0.75200
O256        O  0.13949080  0.74807833  0.28426155    -0.78700
O257        O  0.18900174  0.83046474  0.28050341    -0.79400
C258        C  0.11709036  0.75024465  0.28659613     0.95900
O259        O  0.17097652  0.76821852  0.23765630    -0.77300
O260        O  0.09732044  0.81909034  0.28258295    -0.82500
C261        C  0.13487452  0.84609777  0.23580527     0.98500
C262        C  0.10090913  0.83155636  0.30569557     1.04400
O263        O  0.14440958  0.85095084  0.26070279    -0.78200
C264        C  0.15460618  0.76743946  0.21846868     1.02700
Fe265      Fe  0.01219076  0.43070514  0.40617725     1.65800
Fe266      Fe  0.04030205  0.38086826  0.38247519     1.73200
Fe267      Fe  0.07014314  0.42124709  0.42462998     1.54400
O268        O  0.06936640  0.45442173  0.40483162    -0.81900
O269        O  0.06077366  0.36309591  0.41309102    -0.80200
O270        O  0.03058371  0.46230280  0.40522036    -0.84400
O271        O  0.01280407  0.43048582  0.45166702    -0.79200
O272        O  0.09274094  0.40952662  0.39101064    -0.81000
O273        O  0.01050638  0.36889854  0.40460757    -0.83800
C274        C  0.02983890  0.43329937  0.46964096     0.97000
C275        C  0.05200874  0.46876043  0.40249586     1.04400
O276        O  0.04098572  0.41094328  0.40440514    -1.12700
O277        O  0.02008325  0.39472143  0.34845053    -0.75200
O278        O  0.00961916  0.43195897  0.36052022    -0.78700
O279        O  0.05148224  0.43360938  0.46144496    -0.79400
C280        C  0.01173873  0.41507545  0.34172328     0.95900
O281        O  0.98915672  0.40217731  0.40786017    -0.77300
O282        O  0.06997535  0.38998271  0.35864438    -0.82500
C283        C  0.07174341  0.36787366  0.43693000     0.98500
C284        C  0.08968561  0.39874893  0.36648749     1.04400
O285        O  0.07416096  0.38911153  0.44631027    -0.78200
C286        C  0.99104357  0.37968641  0.40975642     1.02700
Fe287      Fe  0.01097445  0.60347650  0.35863106     1.65800
Fe288      Fe  0.03600397  0.65352630  0.38676589     1.73200
Fe289      Fe  0.06973152  0.61490410  0.34518495     1.54400
O290        O  0.06710909  0.57883692  0.35547118    -0.81900
O291        O  0.04903986  0.67365475  0.35226118    -0.80200
O292        O  0.02962596  0.57365749  0.36963542    -0.84400
O293        O  0.01703532  0.59884398  0.31359858    -0.79200
O294        O  0.08880202  0.61935596  0.38384218    -0.81000
O295        O  0.00162485  0.66204223  0.37295182    -0.83800
C296        C  0.03367955  0.60414740  0.29572365     0.97000
C297        C  0.05073697  0.56623151  0.36665104     1.04400
O298        O  0.03893466  0.62391230  0.36356557    -1.12700
O299        O  0.02339348  0.63509498  0.42306547    -0.75200
O300        O  0.00147572  0.60601202  0.40314243    -0.78700
O301        O  0.05407340  0.61060535  0.30434185    -0.79400
C302        C  0.00913440  0.61770699  0.42534187     0.95900
O303        O  0.98874068  0.63091108  0.34737936    -0.77300
O304        O  0.06976318  0.65045440  0.40410945    -0.82500
C305        C  0.06704456  0.67000273  0.33563562     0.98500
C306        C  0.08751245  0.63646645  0.40230456     1.04400
O307        O  0.07693579  0.64965021  0.33304345    -0.78200
C308        C  0.98610950  0.65203925  0.35680857     1.02700
Fe309      Fe  0.00003568  0.43202853  0.15627367     1.65800
Fe310      Fe  0.97533725  0.38325698  0.12607722     1.73200
Fe311      Fe  0.94306379  0.41775021  0.17360848     1.54400
O312        O  0.96051942  0.42825724  0.21241070    -0.81900
O313        O  0.94628109  0.39427754  0.10216711    -0.80200
O314        O  0.99907611  0.42797356  0.20108779    -0.84400
O315        O  0.97960483  0.46283570  0.15803570    -0.79200
O316        O  0.94186175  0.38378239  0.19104543    -0.81000
O317        O  0.99709593  0.40008518  0.09561980    -0.83800
C318        C  0.95776676  0.46760394  0.15440851     0.97000
C319        C  0.98229332  0.42784677  0.21990253     1.04400
O320        O  0.97269037  0.41106820  0.15198721    -1.12700
O321        O  0.00433561  0.37050578  0.14898145    -0.75200
O322        O  0.02466223  0.40402307  0.15525161    -0.78700
O323        O  0.94153464  0.45217111  0.15721582    -0.79400
C324        C  0.02313185  0.38137372  0.15638753     0.95900
O325        O  0.00284881  0.43729122  0.11137050    -0.77300
O326        O  0.95389180  0.36209282  0.15221371    -0.82500
C327        C  0.92564050  0.39952845  0.11184993     0.98500
C328        C  0.94367464  0.36401246  0.17728112     1.04400
O329        O  0.92181030  0.40695523  0.13823690    -0.78200
C330        C  0.00402945  0.42131806  0.09147050     1.02700
Fe331      Fe  0.99951667  0.60022712  0.11005414     1.65800
Fe332      Fe  0.97545124  0.65118205  0.13706761     1.73200
Fe333      Fe  0.94147648  0.61370214  0.09578594     1.54400
O334        O  0.95768974  0.60273040  0.05610351    -0.81900
O335        O  0.94739659  0.64249633  0.16382989    -0.80200
O336        O  0.99654962  0.60083263  0.06472891    -0.84400
O337        O  0.97967918  0.56942276  0.11370567    -0.79200
O338        O  0.93804106  0.64684172  0.07644143    -0.81000
O339        O  0.99793254  0.63628758  0.16825070    -0.83800
C340        C  0.95790517  0.56445239  0.11712592     0.97000
C341        C  0.97913139  0.60150147  0.04699071     1.04400
O342        O  0.97199524  0.62158359  0.11437957    -1.12700
O343        O  0.00342790  0.66191378  0.11132655    -0.75200
O344        O  0.02368186  0.62796264  0.10578468    -0.78700
O345        O  0.94136747  0.57954019  0.11320592    -0.79400
C346        C  0.02182861  0.65048271  0.10324528     0.95900
O347        O  0.00452516  0.59845485  0.15524792    -0.77300
O348        O  0.95377266  0.67108303  0.10983993    -0.82500
C349        C  0.92692140  0.63453878  0.15779679     0.98500
C350        C  0.94216458  0.66767028  0.08622209     1.04400
O351        O  0.92180427  0.62493910  0.13290846    -0.78200
C352        C  0.00548969  0.61543517  0.17390077     1.02700
Fe353      Fe  0.51287308  0.10493880  0.10513417     1.65800
Fe354      Fe  0.53788802  0.15592270  0.13090752     1.73200
Fe355      Fe  0.57173590  0.11633739  0.09065882     1.54400
O356        O  0.57028164  0.08129144  0.10593443    -0.81900
O357        O  0.55746071  0.17545804  0.10120716    -0.80200
O358        O  0.53169060  0.07369262  0.10890631    -0.84400
O359        O  0.51640089  0.10435631  0.05942475    -0.79200
O360        O  0.59128785  0.12504030  0.12806395    -0.81000
O361        O  0.50810758  0.16663523  0.10842558    -0.83800
C362        C  0.53409488  0.10562837  0.04182629     0.97000
C363        C  0.55315612  0.06707705  0.11013498     1.04400
O364        O  0.54097678  0.12568602  0.10892244    -1.12700
O365        O  0.51793483  0.14071274  0.16404364    -0.75200
O366        O  0.50719567  0.10412762  0.15069863    -0.78700
O367        O  0.55541173  0.10792198  0.05067164    -0.79400
C368        C  0.50878387  0.12065162  0.17004030     0.95900
O369        O  0.48894811  0.13270578  0.10068951    -0.77300
O370        O  0.56756920  0.14874752  0.15545176    -0.82500
C371        C  0.57194771  0.17109781  0.08029434     0.98500
C372        C  0.58707432  0.13786857  0.15088709     1.04400
O373        O  0.57805585  0.14992317  0.07332314    -0.78200
C374        C  0.48979923  0.15528161  0.10067751     1.02700
Fe375      Fe  0.51091400  0.93383716  0.15719119     1.65800
Fe376      Fe  0.53557153  0.88261431  0.13164377     1.73200
Fe377      Fe  0.56917466  0.92134830  0.17282330     1.54400
O378        O  0.56873806  0.95578679  0.15575423    -0.81900
O379        O  0.55555426  0.86286215  0.16129999    -0.80200
O380        O  0.53028706  0.96458017  0.15309908    -0.84400
O381        O  0.51353725  0.93345929  0.20214847    -0.79200
O382        O  0.58944298  0.91107680  0.13608724    -0.81000
O383        O  0.50573167  0.87219076  0.15484324    -0.83800
C384        C  0.53061912  0.93245169  0.22028901     0.97000
C385        C  0.55189567  0.97016854  0.15014969     1.04400
O386        O  0.53872812  0.91259713  0.15386050    -1.12700
O387        O  0.51524350  0.89813270  0.09835069    -0.75200
O388        O  0.50656826  0.93541289  0.11227440    -0.78700
O389        O  0.55231634  0.93152147  0.21225211    -0.79400
C390        C  0.50722573  0.91893622  0.09299881     0.95900
O391        O  0.48639799  0.90644533  0.16126729    -0.77300
O392        O  0.56516121  0.89008287  0.10684907    -0.82500
C393        C  0.56866506  0.86694152  0.18357508     0.98500
C394        C  0.58500788  0.89978826  0.11217415     1.04400
O395        O  0.57388134  0.88802042  0.19166627    -0.78200
C396        C  0.48724739  0.88382674  0.16229954     1.02700
Fe397      Fe  0.50236535  0.10618708  0.35657844     1.65800
Fe398      Fe  0.47585708  0.15449413  0.38601533     1.73200
Fe399      Fe  0.44481391  0.11715937  0.34146104     1.54400
O400        O  0.46250639  0.10495774  0.30312400    -0.81900
O401        O  0.44726588  0.14352710  0.41077778    -0.80200
O402        O  0.50089628  0.11129435  0.31171584    -0.84400
O403        O  0.48326577  0.07475690  0.35383814    -0.79200
O404        O  0.44225917  0.14995946  0.32158812    -0.81000
O405        O  0.49799684  0.13835026  0.41699971    -0.83800
C406        C  0.46216492  0.06888966  0.36060703     0.97000
C407        C  0.48359916  0.10883164  0.29409184     1.04400
O408        O  0.47423630  0.12601692  0.36145370    -1.12700
O409        O  0.50472397  0.16771992  0.36309121    -0.75200
O410        O  0.52596263  0.13449529  0.35849830    -0.78700
O411        O  0.44517195  0.08382007  0.36081996    -0.79400
C412        C  0.52423968  0.15708750  0.35765221     0.95900
O413        O  0.50504704  0.10099204  0.40165985    -0.77300
O414        O  0.45378981  0.17406087  0.35814203    -0.82500
C415        C  0.42678570  0.13766058  0.40184382     0.98500
C416        C  0.44357351  0.17055004  0.33332005     1.04400
O417        O  0.42306253  0.12918641  0.37604906    -0.78200
C418        C  0.50549166  0.11718340  0.42148040     1.02700
Fe419      Fe  0.50285849  0.93290438  0.40746961     1.65800
Fe420      Fe  0.47514244  0.88234689  0.38382333     1.73200
Fe421      Fe  0.44374274  0.92398711  0.42421679     1.54400
O422        O  0.46094679  0.93170031  0.46323786    -0.81900
O423        O  0.44307081  0.88805437  0.36335360    -0.80200
O424        O  0.49948930  0.93653277  0.45310007    -0.84400
O425        O  0.48474379  0.96395376  0.39907431    -0.79200
O426        O  0.43658059  0.89065793  0.44205030    -0.81000
O427        O  0.49164734  0.89706476  0.34783328    -0.83800
C428        C  0.46347772  0.97134783  0.39909180     0.97000
C429        C  0.48227658  0.93469448  0.47129112     1.04400
O430        O  0.47385367  0.91311063  0.40507782    -1.12700
O431        O  0.50710750  0.87179097  0.40161953    -0.75200
O432        O  0.52568771  0.90483408  0.41530765    -0.78700
O433        O  0.44633491  0.95879602  0.40842731    -0.79400
C434        C  0.52501431  0.88240825  0.41206876     0.95900
O435        O  0.50921637  0.93063977  0.36224118    -0.77300
O436        O  0.45865122  0.86421688  0.41724783    -0.82500
C437        C  0.42467829  0.90083405  0.36743906     0.98500
C438        C  0.44356913  0.86934430  0.43722742     1.04400
O439        O  0.42272175  0.91625634  0.38800962    -0.78200
C440        C  0.50357667  0.91560951  0.34228038     1.02700
Fe441      Fe  0.84592588  0.76917523  0.02835631     1.65800
Fe442      Fe  0.89441270  0.79807205  0.00426562     1.73200
Fe443      Fe  0.85403747  0.82723273  0.04816752     1.54400
O444        O  0.82005502  0.82548574  0.03117886    -0.81900
O445        O  0.91278596  0.81891244  0.03462774    -0.80200
O446        O  0.81374393  0.78644291  0.03042222    -0.84400
O447        O  0.84826249  0.76908210  0.07335851    -0.79200
O448        O  0.86274712  0.84988301  0.01323118    -0.81000
O449        O  0.90707818  0.76842154  0.02620919    -0.83800
C450        C  0.84677498  0.78549543  0.09275729     0.97000
C451        C  0.80638606  0.80774419  0.02894419     1.04400
O452        O  0.86476519  0.79841096  0.02684342    -1.12700
O453        O  0.87794485  0.78001712  0.46983363    -0.75200
O454        O  0.84184062  0.76829455  0.48344637    -0.78700
O455        O  0.84518528  0.80754458  0.08593053    -0.79400
C456        C  0.85781266  0.77101387  0.46387370     0.95900
O457        O  0.87468697  0.74619434  0.02691169    -0.77300
O458        O  0.88208975  0.83020798  0.48227917    -0.82500
C459        C  0.90771087  0.83045224  0.05822924     0.98500
C460        C  0.87070680  0.84907068  0.48934673     1.04400
O461        O  0.88654511  0.83285386  0.06743070    -0.78200
C462        C  0.89682939  0.74863250  0.03030636     1.02700
Fe463      Fe  0.66566991  0.76921762  0.49443702     1.65800
Fe464      Fe  0.61702359  0.79834139  0.01271365     1.73200
Fe465      Fe  0.65717101  0.82763921  0.47521509     1.54400
O466        O  0.69068048  0.82609101  0.49433918    -0.81900
O467        O  0.59838937  0.81794644  0.48504620    -0.80200
O468        O  0.69720019  0.78714878  0.49800808    -0.84400
O469        O  0.66633393  0.77003148  0.44921704    -0.79200
O470        O  0.65541588  0.84818404  0.01433643    -0.81000
O471        O  0.60432952  0.76769151  0.49304456    -0.83800
C472        C  0.66753957  0.78678436  0.43049049     0.97000
C473        C  0.70410680  0.80853670  0.50033385     1.04400
O474        O  0.64617960  0.79834055  0.49519850    -1.12700
O475        O  0.63035455  0.78440161  0.05128586    -0.75200
O476        O  0.66291401  0.76366498  0.03866680    -0.78700
O477        O  0.66810432  0.80877432  0.43765985    -0.79400
C478        C  0.64804936  0.77135090  0.05783769     0.95900
O479        O  0.63732707  0.74602226  0.49088774    -0.77300
O480        O  0.62148477  0.83210722  0.03031440    -0.82500
C481        C  0.60359457  0.82987031  0.46218608     0.98500
C482        C  0.63685951  0.84860470  0.03042665     1.04400
O483        O  0.62495155  0.83333913  0.45411939    -0.78200
C484        C  0.61508486  0.74818435  0.48761011     1.02700
Fe485      Fe  0.83789259  0.76038628  0.28073923     1.65800
Fe486      Fe  0.89056563  0.73528772  0.26055072     1.73200
Fe487      Fe  0.84952996  0.70189013  0.29712926     1.54400
O488        O  0.84409971  0.71886676  0.33738964    -0.81900
O489        O  0.88825957  0.70156293  0.24206265    -0.80200
O490        O  0.83127931  0.75548196  0.32536120    -0.84400
O491        O  0.80922065  0.74118978  0.26756218    -0.79200
O492        O  0.88374032  0.69341215  0.31146264    -0.81000
O493        O  0.87582698  0.74855072  0.22241524    -0.83800
C494        C  0.80154657  0.72039022  0.27183517     0.97000
C495        C  0.83759210  0.73995867  0.34425087     1.04400
O496        O  0.85924963  0.73251866  0.27931247    -1.12700
O497        O  0.89753270  0.76926597  0.27672554    -0.75200
O498        O  0.86352558  0.78370445  0.29384303    -0.78700
O499        O  0.81369160  0.70462290  0.28517646    -0.79400
C500        C  0.88561272  0.78548832  0.28988840     0.95900
O501        O  0.84309012  0.76837929  0.23643289    -0.77300
O502        O  0.90818719  0.72201661  0.29681584    -0.82500
C503        C  0.87380970  0.68423604  0.24149511     0.98500
C504        C  0.90407504  0.70322499  0.31139551     1.04400
O505        O  0.85561623  0.68302118  0.25818930    -0.78200
C506        C  0.85789015  0.76153759  0.21672922     1.02700
Fe507      Fe  0.66533451  0.76248519  0.24384269     1.65800
Fe508      Fe  0.61519599  0.73705721  0.26742644     1.73200
Fe509      Fe  0.65392201  0.70504538  0.22480219     1.54400
O510        O  0.66519025  0.72363974  0.18751396    -0.81900
O511        O  0.62404248  0.70756644  0.29207141    -0.80200
O512        O  0.66253071  0.76241319  0.19892517    -0.84400
O513        O  0.69656154  0.74289498  0.24164794    -0.79200
O514        O  0.62150149  0.70185170  0.20444704    -0.81000
O515        O  0.63003770  0.75822222  0.30028782    -0.83800
C516        C  0.70247848  0.72116436  0.24449411     0.97000
C517        C  0.66350782  0.74549407  0.18009933     1.04400
O518        O  0.64485926  0.73457375  0.24545060    -1.12700
O519        O  0.60438354  0.76648343  0.24340828    -0.75200
O520        O  0.63761575  0.78727558  0.24491531    -0.78700
O521        O  0.68751196  0.70443193  0.24322730    -0.79400
C522        C  0.61554149  0.78584977  0.23962866     0.95900
O523        O  0.66824102  0.76319876  0.28921043    -0.77300
O524        O  0.59621037  0.71581230  0.23844138    -0.82500
C525        C  0.63209860  0.68728312  0.28398904     0.98500
C526        C  0.60065148  0.70414826  0.21480162     1.04400
O527        O  0.64236932  0.68349318  0.25917741    -0.78200
C528        C  0.65121114  0.76307960  0.30776957     1.02700
Fe529      Fe  0.34215172  0.27264423  0.28264017     1.65800
Fe530      Fe  0.39036304  0.29912550  0.25454740     1.73200
Fe531      Fe  0.35328180  0.33053506  0.29924647     1.54400
O532        O  0.31980736  0.33081766  0.28032219    -0.81900
O533        O  0.40954438  0.32165431  0.28192817    -0.80200
O534        O  0.31099560  0.29220730  0.28378279    -0.84400
O535        O  0.34477029  0.27400374  0.32797466    -0.79200
O536        O  0.36561717  0.35203678  0.26499143    -0.81000
O537        O  0.40343505  0.27111503  0.27870121    -0.83800
C538        C  0.34185630  0.29149635  0.34566206     0.97000
C539        C  0.30499253  0.31382461  0.27974459     1.04400
O540        O  0.36187482  0.30083824  0.27884673    -1.12700
O541        O  0.37554527  0.27628159  0.22339106    -0.75200
O542        O  0.33821174  0.26977566  0.23732309    -0.78700
O543        O  0.34091263  0.31302846  0.33686009    -0.79400
C544        C  0.35458908  0.26928970  0.21792892     0.95900
O545        O  0.37086921  0.24900869  0.28237405    -0.77300
O546        O  0.37882216  0.32725751  0.22953454    -0.82500
C547        C  0.40646200  0.33076430  0.30755168     0.98500
C548        C  0.37360119  0.34800722  0.23896651     1.04400
O549        O  0.38601804  0.33237880  0.31949283    -0.78200
C550        C  0.39317194  0.25173569  0.28501047     1.02700
Fe551      Fe  0.17062549  0.27428662  0.23735165     1.65800
Fe552      Fe  0.11913275  0.30079739  0.26065047     1.73200
Fe553      Fe  0.15960157  0.33322362  0.22079251     1.54400
O554        O  0.19464352  0.33114880  0.23501977    -0.81900
O555        O  0.10014839  0.31786329  0.22789828    -0.80200
O556        O  0.20072294  0.29302623  0.24583270    -0.84400
O557        O  0.17444491  0.27757289  0.19187706    -0.79200
O558        O  0.15245965  0.35355905  0.25821839    -0.81000
O559        O  0.10951407  0.26872191  0.24137560    -0.83800
C560        C  0.17160392  0.29451006  0.17357020     0.97000
C561        C  0.20765555  0.31436922  0.24456370     1.04400
O562        O  0.14978113  0.30281243  0.23956778    -1.12700
O563        O  0.13411159  0.28392647  0.29642942    -0.75200
O564        O  0.16883260  0.26831401  0.28260682    -0.78700
O565        O  0.16700422  0.31586597  0.18141321    -0.79400
C566        C  0.15338036  0.27322939  0.30238085     0.95900
O567        O  0.14346575  0.25094496  0.22908163    -0.77300
O568        O  0.12504288  0.33250732  0.28255502    -0.82500
C569        C  0.10493269  0.33356369  0.20864899     0.98500
C570        C  0.13807627  0.35075444  0.27964528     1.04400
O571        O  0.12604545  0.34052452  0.20405900    -0.78200
C572        C  0.12106302  0.25096308  0.23116794     1.02700
Fe573      Fe  0.34128764  0.26272853  0.03364394     1.65800
Fe574      Fe  0.39068083  0.23861037  0.00268953     1.73200
Fe575      Fe  0.35443646  0.20419292  0.04514728     1.54400
O576        O  0.34484116  0.22015416  0.08560036    -0.81900
O577        O  0.38136133  0.20989294  0.47729321    -0.80200
O578        O  0.34428362  0.25967624  0.07882885    -0.84400
O579        O  0.31050622  0.24316100  0.03366502    -0.79200
O580        O  0.38789158  0.20000378  0.06245205    -0.81000
O581        O  0.37327386  0.26026562  0.47187472    -0.83800
C582        C  0.30488522  0.22164527  0.02884860     0.97000
C583        C  0.34439207  0.24152351  0.09552403     1.04400
O584        O  0.36216879  0.23503624  0.02718870    -1.12700
O585        O  0.40239433  0.26722879  0.02717172    -0.75200
O586        O  0.36874980  0.28711144  0.03487125    -0.78700
O587        O  0.31998624  0.20477289  0.02895492    -0.79400
C588        C  0.39124281  0.28592901  0.03508595     0.95900
O589        O  0.33683404  0.26814853  0.48896890    -0.77300
O590        O  0.41141037  0.21695294  0.02905054    -0.82500
C591        C  0.37439660  0.18923938  0.48463117     0.98500
C592        C  0.40836817  0.20434468  0.05201187     1.04400
O593        O  0.36466155  0.18454098  0.00781840    -0.78200
C594        C  0.35226554  0.26790118  0.46838496     1.02700
Fe595      Fe  0.17123694  0.26411358  0.48892305     1.65800
Fe596      Fe  0.12279684  0.23600133  0.01472717     1.73200
Fe597      Fe  0.15950737  0.20662716  0.46934354     1.54400
O598        O  0.17131531  0.22503776  0.43194461    -0.81900
O599        O  0.13354536  0.20669793  0.03827502    -0.80200
O600        O  0.16906803  0.26367448  0.44380658    -0.84400
O601        O  0.20228381  0.24433968  0.48931868    -0.79200
O602        O  0.12660356  0.20468796  0.44926807    -0.81000
O603        O  0.13796974  0.25748412  0.04711417    -0.83800
C604        C  0.20768770  0.22253998  0.49300659     0.97000
C605        C  0.17009287  0.24695060  0.42478650     1.04400
O606        O  0.15094279  0.23600727  0.49108663    -1.12700
O607        O  0.11002773  0.26719135  0.49253848    -0.75200
O608        O  0.14311559  0.28843779  0.48876877    -0.78700
O609        O  0.19315684  0.20571786  0.48816161    -0.79400
C610        C  0.12073231  0.28640845  0.48657055     0.95900
O611        O  0.17501218  0.26537256  0.03301322    -0.77300
O612        O  0.10259084  0.21690363  0.48565209    -0.82500
C613        C  0.14029458  0.18637824  0.02874992     0.98500
C614        C  0.10597611  0.20692426  0.46059526     1.04400
O615        O  0.14918349  0.18306305  0.00296217    -0.78200
C616        C  0.15869797  0.26518817  0.05241158     1.02700
Fe617      Fe  0.00533289  0.10469811  0.40920364     1.65800
Fe618      Fe  0.97992953  0.15284262  0.37819033     1.73200
Fe619      Fe  0.94740800  0.11763992  0.42298639     1.54400
O620        O  0.94721203  0.08371515  0.40475343    -0.81900
O621        O  0.95711736  0.17330185  0.40420511    -0.80200
O622        O  0.98537260  0.07380936  0.40996201    -0.84400
O623        O  0.00248562  0.10854796  0.45454052    -0.79200
O624        O  0.92680100  0.12954086  0.38758013    -0.81000
O625        O  0.00781814  0.16614033  0.40236477    -0.83800
C626        C  0.98460555  0.10645888  0.47162695     0.97000
C627        C  0.96388095  0.06837000  0.40483610     1.04400
O628        O  0.97753453  0.12500438  0.40342058    -1.12700
O629        O  0.00290864  0.13633213  0.34841769    -0.75200
O630        O  0.01015775  0.09945643  0.36408545    -0.78700
O631        O  0.96351967  0.10559285  0.46172041    -0.79400
C632        C  0.01088383  0.11531627  0.34413936     0.95900
O633        O  0.02914057  0.13306228  0.40933377    -0.77300
O634        O  0.95205502  0.14147771  0.35257998    -0.82500
C635        C  0.94707305  0.17099160  0.42933381     0.98500
C636        C  0.93115074  0.13696244  0.36148065     1.04400
O637        O  0.94555822  0.15105279  0.44237807    -0.78200
C638        C  0.02691419  0.15567649  0.40969898     1.02700
Fe639      Fe  0.99672087  0.92933344  0.36403808     1.65800
Fe640      Fe  0.96914902  0.87909825  0.38670094     1.73200
Fe641      Fe  0.93740789  0.92195755  0.35141470     1.54400
O642        O  0.94306373  0.95778479  0.36251881    -0.81900
O643        O  0.95504573  0.86220544  0.35059913    -0.80200
O644        O  0.98017020  0.95955100  0.37855305    -0.84400
O645        O  0.99018672  0.93668574  0.31945892    -0.79200
O646        O  0.91981573  0.91825368  0.39127414    -0.81000
O647        O  0.00256599  0.86942101  0.37080179    -0.83800
C648        C  0.97338094  0.93175950  0.30160987     0.97000
C649        C  0.95992119  0.96881621  0.37511116     1.04400
O650        O  0.96781111  0.91024821  0.36747867    -1.12700
O651        O  0.98338677  0.89384974  0.42408290    -0.75200
O652        O  0.00616225  0.92355829  0.40827001    -0.78700
O653        O  0.95280406  0.92572926  0.31032096    -0.79400
C654        C  0.99822391  0.91030822  0.42896515     0.95900
O655        O  0.01727278  0.90153289  0.34929993    -0.77300
O656        O  0.93571004  0.88362353  0.40556628    -0.82500
C657        C  0.93580140  0.86711019  0.33758333     0.98500
C658        C  0.91972545  0.89971246  0.40720806     1.04400
O659        O  0.92643459  0.88785810  0.33845284    -0.78200
C660        C  0.01846672  0.87961885  0.35553517     1.02700
Fe661      Fe  0.01391864  0.10503058  0.16081883     1.65800
Fe662      Fe  0.03984067  0.15323724  0.12959578     1.73200
Fe663      Fe  0.07350692  0.11452175  0.16980764     1.54400
O664        O  0.05927252  0.11095522  0.21173867    -0.81900
O665        O  0.07278438  0.14898057  0.11024398    -0.80200
O666        O  0.02175316  0.09969357  0.20531360    -0.84400
O667        O  0.03072370  0.07433858  0.14788434    -0.79200
O668        O  0.08175466  0.14945042  0.18157599    -0.81000
O669        O  0.02602519  0.13413566  0.09489100    -0.83800
C670        C  0.05165848  0.06619175  0.14968706     0.97000
C671        C  0.03919479  0.10481967  0.22187463     1.04400
O672        O  0.04249405  0.12418120  0.15343711    -1.12700
O673        O  0.00617453  0.16298242  0.14484566    -0.75200
O674        O  0.99419914  0.13395245  0.17462118    -0.78700
O675        O  0.06893657  0.07837903  0.15957603    -0.79400
C676        C  0.99198271  0.15468708  0.16406849     0.95900
O677        O  0.00222491  0.10784147  0.11707336    -0.77300
O678        O  0.05430107  0.17384008  0.16278859    -0.82500
C679        C  0.09020702  0.13463070  0.11116569     0.98500
C680        C  0.07225880  0.17006255  0.17910024     1.04400
O681        O  0.09171821  0.11801270  0.13001472    -0.78200
C682        C  0.01049892  0.11786166  0.09398790     1.02700
Fe683      Fe  0.00653585  0.93118121  0.11538975     1.65800
Fe684      Fe  0.03353534  0.88351647  0.14428807     1.73200
Fe685      Fe  0.06357199  0.91858667  0.09680289     1.54400
O686        O  0.04519295  0.92991803  0.05924267    -0.81900
O687        O  0.06203190  0.89580483  0.16802673    -0.80200
O688        O  0.00687927  0.92612868  0.07060222    -0.84400
O689        O  0.02598883  0.96233658  0.11201716    -0.79200
O690        O  0.06479949  0.88508016  0.07770956    -0.81000
O691        O  0.01108215  0.89966634  0.17524786    -0.83800
C692        C  0.04764800  0.96787932  0.11556275     0.97000
C693        C  0.02357771  0.92750152  0.05174681     1.04400
O694        O  0.03466510  0.91121444  0.11891322    -1.12700
O695        O  0.00536263  0.86984691  0.12105374    -0.75200
O696        O  0.98304159  0.90251694  0.11755927    -0.78700
O697        O  0.06437932  0.95262493  0.11463016    -0.79400
C698        C  0.98597441  0.88007134  0.11447523     0.95900
O699        O  0.00468238  0.93696759  0.16052930    -0.77300
O700        O  0.05580478  0.86328984  0.11723439    -0.82500
C701        C  0.08248468  0.90012127  0.15743452     0.98500
C702        C  0.06438370  0.86530710  0.09122109     1.04400
O703        O  0.08576699  0.90698935  0.13083794    -0.78200
C704        C  0.00409955  0.92094325  0.18021719     1.02700
C705        C  0.05535872  0.04146607  0.13903265    -0.00400
C706        C  0.04480294  0.03502681  0.11200110    -0.12200
C707        C  0.04354426  0.01118075  0.10306036     0.01900
C708        C  0.05303139  0.99319699  0.12129722    -0.00500
C709        C  0.06511775  0.99966258  0.14730918    -0.12200
C710        C  0.06619858  0.02365700  0.15643223     0.01800
H711        H  0.03667045  0.04866016  0.09832895     0.14700
H712        H  0.07230208  0.98585113  0.16149110     0.14700
C713        C  0.07648629  0.02924067  0.18489069     0.36400
C714        C  0.03205203  0.00554474  0.07530145     0.36300
N715        N  0.08460962  0.03367717  0.20779614    -0.44000
N716        N  0.02290466  0.00102305  0.05303974    -0.44000
C717        C  0.00609591  0.91439865  0.46019153    -0.00400
C718        C  0.02494804  0.93019635  0.46602416    -0.12200
C719        C  0.03200673  0.93540033  0.49524581     0.01900
C720        C  0.01726960  0.92460533  0.02010287    -0.00500
C721        C  0.99830030  0.90942268  0.01354560    -0.12200
C722        C  0.99469482  0.90331363  0.48464820     0.01800
H723        H  0.03417728  0.93863531  0.44774970     0.14700
H724        H  0.98886197  0.90060885  0.03142154     0.14700
C725        C  0.97614354  0.88577015  0.48146359     0.36400
C726        C  0.05139284  0.95169817  0.49986065     0.36300
N727        N  0.96143137  0.87155200  0.47921716    -0.44000
N728        N  0.06700420  0.96469778  0.50352570    -0.44000
C729        C  0.99427003  0.92649791  0.20986051    -0.00400
C730        C  0.97726984  0.91098898  0.22142643    -0.12200
C731        C  0.96908805  0.91342818  0.25057454     0.01900
C732        C  0.97851033  0.93142677  0.26926001    -0.00500
C733        C  0.99495519  0.94757749  0.25726232    -0.12200
C734        C  0.00257594  0.94548845  0.22760121     0.01800
H735        H  0.97065972  0.89652633  0.20768814     0.14700
H736        H  0.00221563  0.96153586  0.27123458     0.14700
C737        C  0.01979823  0.96219255  0.21639950     0.36400
C738        C  0.95199598  0.89620582  0.26082099     0.36300
N739        N  0.03352491  0.97564634  0.20737651    -0.44000
N740        N  0.93813406  0.88234429  0.26840030    -0.44000
C741        C  0.98834183  0.10512397  0.00457591    -0.00400
C742        C  0.01132061  0.09857754  0.01372446    -0.12200
C743        C  0.01823342  0.10100102  0.04333416     0.01900
C744        C  0.00216157  0.11034794  0.06448901    -0.00500
C745        C  0.97867446  0.11496623  0.05622594    -0.12200
C746        C  0.97155296  0.11230506  0.02657621     0.01800
H747        H  0.02448559  0.09186734  0.49867323     0.14700
H748        H  0.96620084  0.12182783  0.07265635     0.14700
C749        C  0.94732076  0.11839036  0.01943787     0.36400
C750        C  0.04191947  0.09370649  0.05162440     0.36300
N751        N  0.92787049  0.12331259  0.01388330    -0.44000
N752        N  0.06075230  0.08753929  0.05841226    -0.44000
C753        C  0.02142412  0.10997816  0.31460187    -0.00400
C754        C  0.03345337  0.12850760  0.30032202    -0.12200
C755        C  0.04039307  0.12653907  0.27066397     0.01900
C756        C  0.03535537  0.10558961  0.25438336    -0.00500
C757        C  0.02443177  0.08642555  0.26897112    -0.12200
C758        C  0.01775574  0.08831766  0.29906179     0.01800
H759        H  0.03663301  0.14512124  0.31212479     0.14700
H760        H  0.02060106  0.07022076  0.25666160     0.14700
C761        C  0.00606663  0.06836291  0.31285742     0.36400
C762        C  0.05067724  0.14729605  0.25703491     0.36300
N763        N  0.99681277  0.05231818  0.32397265    -0.44000
N764        N  0.05870404  0.16431838  0.24679846    -0.44000
C765        C  0.95673006  0.99369320  0.38588708    -0.00400
C766        C  0.94361978  0.01020538  0.36914500    -0.12200
C767        C  0.94440470  0.03474296  0.37587043     0.01900
C768        C  0.95868077  0.04290643  0.39949936    -0.00500
C769        C  0.97022037  0.02622948  0.41744195    -0.12200
C770        C  0.96911731  0.00189236  0.41118696     0.01800
H771        H  0.93385804  0.00413432  0.34986320     0.14700
H772        H  0.98060872  0.03232659  0.43622110     0.14700
C773        C  0.98100325  0.98580081  0.43123203     0.36400
C774        C  0.93177655  0.05121609  0.35708607     0.36300
N775        N  0.99049096  0.97310862  0.44754144    -0.44000
N776        N  0.92159882  0.06444922  0.34211157    -0.44000
C777        C  0.13495684  0.16578069  0.04779471    -0.00400
C778        C  0.14120918  0.16694549  0.07785490    -0.12200
C779        C  0.12897823  0.15346679  0.09900917     0.01900
C780        C  0.10973699  0.13914907  0.09015209    -0.00500
C781        C  0.10540602  0.13586283  0.05980871    -0.12200
C782        C  0.11816551  0.14870912  0.03853234     0.01800
H783        H  0.15420819  0.17990646  0.08509926     0.14700
H784        H  0.09055135  0.12504394  0.05286000     0.14700
C785        C  0.11146599  0.14627987  0.00777651     0.36400
C786        C  0.13476177  0.15668945  0.12992985     0.36300
N787        N  0.10607455  0.14412900  0.98316551    -0.44000
N788        N  0.13971441  0.15924874  0.15462490    -0.44000
C789        C  0.08525108  0.19627781  0.44491397    -0.00400
C790        C  0.08944438  0.17841926  0.42335299    -0.12200
C791        C  0.07073540  0.16532354  0.41110495     0.01900
C792        C  0.04712987  0.17030115  0.41986755    -0.00500
C793        C  0.04270783  0.18910373  0.43983127    -0.12200
C794        C  0.06136914  0.20191497  0.45260000     0.01800
H795        H  0.10749548  0.17389823  0.41687065     0.14700
H796        H  0.02456621  0.19319146  0.44643383     0.14700
C797        C  0.05519902  0.22041511  0.47380088     0.36400
C798        C  0.07623711  0.14699365  0.38941568     0.36300
N799        N  0.05155208  0.23672548  0.98754265    -0.44000
N800        N  0.08065516  0.13233248  0.37200372    -0.44000
C801        C  0.27964414  0.21686663  0.02234232    -0.00400
C802        C  0.27221420  0.20223447  0.50094134    -0.12200
C803        C  0.24845384  0.20239752  0.49110835     0.01900
C804        C  0.23162207  0.21752996  0.50512261    -0.00500
C805        C  0.23820232  0.22791545  0.02940378    -0.12200
C806        C  0.26156122  0.22777042  0.03958575     0.01800
H807        H  0.28546153  0.19194333  0.48879233     0.14700
H808        H  0.22460826  0.23721722  0.04222396     0.14700
C809        C  0.26664532  0.23947147  0.06750882     0.36400
C810        C  0.24213205  0.18829174  0.46548182     0.36300
N811        N  0.27072889  0.24880825  0.08987964    -0.44000
N812        N  0.23695505  0.17694551  0.44498979    -0.44000
C813        C  0.08332746  0.19050437  0.19513207    -0.00400
C814        C  0.10647608  0.18765320  0.20610144    -0.12200
C815        C  0.11880157  0.20674110  0.21868213     0.01900
C816        C  0.10797585  0.22956850  0.22063941    -0.00500
C817        C  0.08424977  0.23207191  0.21163241    -0.12200
C818        C  0.07185509  0.21286909  0.19917447     0.01800
H819        H  0.11526908  0.17045197  0.20452015     0.14700
H820        H  0.07542103  0.24924398  0.21375859     0.14700
C821        C  0.04724885  0.21663775  0.19157988     0.36400
C822        C  0.14238596  0.20204676  0.22978715     0.36300
N823        N  0.02748144  0.21965753  0.18573367    -0.44000
N824        N  0.16124508  0.19815256  0.23867605    -0.44000
C825        C  0.15805003  0.26666655  0.33379701    -0.00400
C826        C  0.17440166  0.24827829  0.34018361    -0.12200
C827        C  0.17899702  0.24149160  0.36959573     0.01900
C828        C  0.16759364  0.25362896  0.39324761    -0.00500
C829        C  0.15173928  0.27226291  0.38689712    -0.12200
C830        C  0.14668098  0.27870302  0.35778695     0.01800
H831        H  0.18335335  0.23890085  0.32217145     0.14700
H832        H  0.14256909  0.28149096  0.40490725     0.14700
C833        C  0.12957449  0.29771375  0.35372563     0.36400
C834        C  0.19573428  0.22241686  0.37492550     0.36300
N835        N  0.11560040  0.31272665  0.35082775    -0.44000
N836        N  0.20913504  0.20711811  0.37927036    -0.44000
C837        C  0.17113667  0.28885327  0.14154731    -0.00400
C838        C  0.15277258  0.29904114  0.12481194    -0.12200
C839        C  0.14878053  0.29184408  0.09558070     0.01900
C840        C  0.16369420  0.27452218  0.08229706    -0.00500
C841        C  0.18295649  0.26529255  0.09830604    -0.12200
C842        C  0.18659430  0.27206745  0.12796256     0.01800
H843        H  0.14073926  0.31189913  0.13505407     0.14700
H844        H  0.19459592  0.25211732  0.08800004     0.14700
C845        C  0.20623561  0.26164602  0.14385546     0.36400
C846        C  0.12920369  0.30246040  0.07969929     0.36300
N847        N  0.22201648  0.25327952  0.15651539    -0.44000
N848        N  0.11350659  0.31094623  0.06700351    -0.44000
C849        C  0.34584615  0.27619344  0.43866251    -0.00400
C850        C  0.33344472  0.26066505  0.41994191    -0.12200
C851        C  0.33108093  0.26562853  0.38967238     0.01900
C852        C  0.34082629  0.28680796  0.37793916    -0.00500
C853        C  0.35202933  0.30296457  0.39723780    -0.12200
C854        C  0.35497460  0.29760585  0.42728243     0.01800
H855        H  0.32669949  0.24401701  0.42868457     0.14700
H856        H  0.35978680  0.31915834  0.38851143     0.14700
C857        C  0.36836750  0.31376288  0.44574147     0.36400
C858        C  0.31908858  0.24842528  0.37115110     0.36300
N859        N  0.37920918  0.32664488  0.46048611    -0.44000
N860        N  0.30958945  0.23455667  0.35631599    -0.44000
C861        C  0.34966267  0.26003911  0.18784059    -0.00400
C862        C  0.36650409  0.24481558  0.17461839    -0.12200
C863        C  0.36439635  0.23760133  0.14503098     0.01900
C864        C  0.34508959  0.24571985  0.12790898    -0.00500
C865        C  0.32786039  0.26055187  0.14130104    -0.12200
C866        C  0.32987268  0.26758328  0.17115792     0.01800
H867        H  0.38182269  0.23907242  0.18728531     0.14700
H868        H  0.31317795  0.26717805  0.12817018     0.14700
C869        C  0.31236530  0.28380910  0.18348896     0.36400
C870        C  0.38350178  0.22356000  0.13245828     0.36300
N871        N  0.29837343  0.29684954  0.19339201    -0.44000
N872        N  0.39936798  0.21249648  0.12339916    -0.44000
C873        C  0.27958841  0.31862279  0.27420327    -0.00400
C874        C  0.27266084  0.33221718  0.24955341    -0.12200
C875        C  0.24885578  0.33248931  0.24020459     0.01900
C876        C  0.23177418  0.31911531  0.25586791    -0.00500
C877        C  0.23850425  0.30729058  0.28188355    -0.12200
C878        C  0.26206570  0.30692721  0.29111708     0.01800
H879        H  0.28604473  0.34124795  0.23645527     0.14700
H880        H  0.22537429  0.29742512  0.29446941     0.14700
C881        C  0.26790846  0.29380588  0.31765183     0.36400
C882        C  0.24282875  0.34486433  0.21326491     0.36300
N883        N  0.27260280  0.28326902  0.33885672    -0.44000
N884        N  0.23797400  0.35474984  0.19163516    -0.44000
C885        C  0.77713522  0.71533293  0.26119795    -0.00400
C886        C  0.76122898  0.70229666  0.27890388    -0.12200
C887        C  0.73673872  0.70231606  0.27266888     0.01900
C888        C  0.72799719  0.71582168  0.24867391    -0.00500
C889        C  0.74414638  0.72687382  0.22953105    -0.12200
C890        C  0.76847423  0.72640583  0.23521948     0.01800
H891        H  0.76765569  0.69339913  0.29861579     0.14700
H892        H  0.73761263  0.73657574  0.21043964     0.14700
C893        C  0.78410532  0.73784750  0.21417408     0.36400
C894        C  0.72082648  0.68984827  0.29232793     0.36300
N895        N  0.79652935  0.74695811  0.19718776    -0.44000
N896        N  0.70804664  0.67976467  0.30798137    -0.44000
C897        C  0.89792369  0.80727742  0.30105448    -0.00400
C898        C  0.92251604  0.80946919  0.29615633    -0.12200
C899        C  0.93505749  0.82924648  0.30671222     0.01900
C900        C  0.92306667  0.84745196  0.32265519    -0.00500
C901        C  0.89849250  0.84577558  0.32687238    -0.12200
C902        C  0.88586212  0.82602074  0.31648142     0.01800
H903        H  0.93213102  0.79566781  0.28404204     0.14700
H904        H  0.88918596  0.85962249  0.33932118     0.14700
C905        C  0.86067402  0.82563223  0.32271353     0.36400
C906        C  0.96004881  0.83086972  0.29981291     0.36300
N907        N  0.84051367  0.82545993  0.32781169    -0.44000
N908        N  0.97999814  0.83226716  0.29387267    -0.44000
C909        C  0.65177127  0.76487385  0.08918012    -0.00400
C910        C  0.66365258  0.74340215  0.09556187    -0.12200
C911        C  0.66789077  0.73653015  0.12485055     0.01900
C912        C  0.66098426  0.75181702  0.14845989    -0.00500
C913        C  0.64921561  0.77333911  0.14195274    -0.12200
C914        C  0.64416221  0.77975416  0.11285605     0.01800
H915        H  0.66922119  0.73163916  0.07758343     0.14700
H916        H  0.64308233  0.78497429  0.15978999     0.14700
C917        C  0.63082635  0.80153594  0.10839154     0.36400
C918        C  0.67906619  0.71365422  0.12976300     0.36300
N919        N  0.61973708  0.81876914  0.10520481    -0.44000
N920        N  0.68778057  0.69518405  0.13358513    -0.44000
C921        C  0.66541914  0.78020060  0.39900948    -0.00400
C922        C  0.64761310  0.76386189  0.39177298    -0.12200
C923        C  0.64251386  0.75831403  0.36236429     0.01900
C924        C  0.65593856  0.76875820  0.33925301    -0.00500
C925        C  0.67425190  0.78470661  0.34653257    -0.12200
C926        C  0.67880560  0.79080418  0.37619505     0.01800
H927        H  0.63697886  0.75594823  0.40927992     0.14700
H928        H  0.68467217  0.79281784  0.32901902     0.14700
C929        C  0.69740988  0.80760652  0.38270204     0.36400
C930        C  0.62339367  0.74177446  0.35695891     0.36300
N931        N  0.71231089  0.82108459  0.38797515    -0.44000
N932        N  0.60792720  0.72864954  0.35300513    -0.44000
C933        C  0.84786584  0.77862661  0.12459307    -0.00400
C934        C  0.84253982  0.79580896  0.14662830    -0.12200
C935        C  0.84535524  0.79070191  0.17683892     0.01900
C936        C  0.85383867  0.76806907  0.18547602    -0.00500
C937        C  0.85887492  0.75085802  0.16367728    -0.12200
C938        C  0.85584536  0.75569218  0.13362333     0.01800
H939        H  0.83653300  0.81346580  0.14029923     0.14700
H940        H  0.86532060  0.73339419  0.17020927     0.14700
C941        C  0.86184527  0.73669622  0.11297899     0.36400
C942        C  0.84067174  0.80938451  0.19833553     0.36300
N943        N  0.86663117  0.72133209  0.09668177    -0.44000
N944        N  0.83700232  0.82438124  0.21556580    -0.44000
C945        C  0.85259725  0.76325616  0.43303044    -0.00400
C946        C  0.83664732  0.74429392  0.42844152    -0.12200
C947        C  0.83103607  0.73639577  0.39972427     0.01900
C948        C  0.84074600  0.74813741  0.37504585    -0.00500
C949        C  0.85631864  0.76723977  0.37950685    -0.12200
C950        C  0.86268642  0.77458359  0.40802557     0.01800
H951        H  0.82886519  0.73530012  0.44735410     0.14700
H952        H  0.86428136  0.77595467  0.36046434     0.14700
C953        C  0.87963163  0.79372434  0.41059359     0.36400
C954        C  0.81508308  0.71655543  0.39609426     0.36300
N955        N  0.89336683  0.80894446  0.41225346    -0.44000
N956        N  0.80227692  0.70065176  0.39320546    -0.44000
C957        C  0.72875575  0.81217019  0.51119263    -0.00400
C958        C  0.74029124  0.79926431  0.03503894    -0.12200
C959        C  0.76423150  0.79952564  0.04275670     0.01900
C960        C  0.78075715  0.81135499  0.02453047    -0.00500
C961        C  0.76803820  0.83044895  0.50925031    -0.12200
C962        C  0.74375417  0.83084554  0.50173596     0.01800
H963        H  0.72784480  0.78959055  0.04886221     0.14700
H964        H  0.77977100  0.84399399  0.50049866     0.14700
C965        C  0.73500751  0.84992392  0.48335794     0.36400
C966        C  0.77151843  0.78724222  0.06934063     0.36300
N967        N  0.72792503  0.86533858  0.46883916    -0.44000
N968        N  0.77741021  0.77746193  0.09064003    -0.44000
C969        C  0.87358812  0.86938434  0.46921749    -0.00400
C970        C  0.88832746  0.88804411  0.47867960    -0.12200
C971        C  0.90155600  0.90104905  0.45795346     0.01900
C972        C  0.89986702  0.89529483  0.42758913    -0.00500
C973        C  0.88239398  0.87932350  0.41804396    -0.12200
C974        C  0.86907861  0.86648047  0.43870180     0.01800
H975        H  0.89288919  0.88955018  0.00067347     0.14700
H976        H  0.88080875  0.87514435  0.39459268     0.14700
C977        C  0.85243148  0.84887847  0.42823941     0.36400
C978        C  0.91845010  0.91843746  0.46834000     0.36300
N979        N  0.83895542  0.83487659  0.41991624    -0.44000
N980        N  0.93190991  0.93249867  0.47655164    -0.44000
C981        C  0.96609203  0.86565171  0.10240839    -0.00400
C982        C  0.94269924  0.87359967  0.10719989    -0.12200
C983        C  0.92340304  0.86200526  0.09409419     0.01900
C984        C  0.92727544  0.84200545  0.07517527    -0.00500
C985        C  0.95066841  0.83366854  0.07106829    -0.12200
C986        C  0.96993521  0.84510077  0.08452504     0.01800
H987        H  0.93944918  0.88922011  0.12101354     0.14700
H988        H  0.95402753  0.81829231  0.05688193     0.14700
C989        C  0.99347470  0.83592374  0.07828617     0.36400
C990        C  0.90001955  0.87181151  0.09970607     0.36300
N991        N  0.01229412  0.82847528  0.07328578    -0.44000
N992        N  0.88131284  0.87968366  0.10434932    -0.44000
C993        C  0.54568427  0.86795450  0.42158916    -0.00400
C994        C  0.54154154  0.84596426  0.43523529    -0.12200
C995        C  0.56018586  0.83263075  0.44724050     0.01900
C996        C  0.58380045  0.84119736  0.44552836    -0.00500
C997        C  0.58807779  0.86245228  0.43002385    -0.12200
C998        C  0.56932061  0.87585199  0.41818315     0.01800
H999        H  0.52350053  0.83954545  0.43753608     0.14700
H1000       H  0.60603242  0.86917622  0.42813794     0.14700
C1001       C  0.57486245  0.89746225  0.40234780     0.36400
C1002       C  0.55428280  0.81039843  0.46147757     0.36300
N1003       N  0.57929960  0.91473104  0.38956113    -0.44000
N1004       N  0.54934849  0.79268716  0.47297602    -0.44000
C1005       C  0.40755057  0.23147385  0.29577352    -0.00400
C1006       C  0.40277727  0.20854590  0.28489510    -0.12200
C1007       C  0.41487901  0.18854198  0.29568915     0.01900
C1008       C  0.43212041  0.19126201  0.31832462    -0.00500
C1009       C  0.43722436  0.21444708  0.32858581    -0.12200
C1010       C  0.42516465  0.23440931  0.31761079     0.01800
H1011       H  0.38930177  0.20622519  0.26801829     0.14700
H1012       H  0.45028949  0.21703889  0.34587756     0.14700
C1013       C  0.43004682  0.25744428  0.33071520     0.36400
C1014       C  0.40832574  0.16554748  0.28374120     0.36300
N1015       N  0.43388681  0.27581061  0.34148371    -0.44000
N1016       N  0.40296417  0.14719360  0.27404695    -0.44000
C1017       C  0.40656525  0.14349946  0.42153422    -0.00400
C1018       C  0.40829857  0.13793665  0.45174823    -0.12200
C1019       C  0.39485535  0.15049687  0.47297127     0.01900
C1020       C  0.38003518  0.16950702  0.46389948    -0.00500
C1021       C  0.37610745  0.17295489  0.43351058    -0.12200
C1022       C  0.38893323  0.15980461  0.41225138     0.01800
H1023       H  0.42164033  0.12521694  0.45895653     0.14700
H1024       H  0.36452916  0.18734852  0.42641339     0.14700
C1025       C  0.38572584  0.16556069  0.38131843     0.36400
C1026       C  0.39961174  0.14609165  0.00199553     0.36300
N1027       N  0.38299681  0.17015985  0.35656121    -0.44000
N1028       N  0.40311101  0.14211520  0.02676812    -0.44000
C1029       C  0.45913332  0.99546135  0.38671989    -0.00400
C1030       C  0.44504009  0.01232856  0.40206888    -0.12200
C1031       C  0.44419420  0.03629895  0.39276959     0.01900
C1032       C  0.45797470  0.04356895  0.36810704    -0.00500
C1033       C  0.47043480  0.02629845  0.35165959    -0.12200
C1034       C  0.47080992  0.00250262  0.36037889     0.01800
H1035       H  0.43563167  0.00707455  0.42203101     0.14700
H1036       H  0.48037517  0.03154030  0.33206086     0.14700
C1037       C  0.48308040  0.98567012  0.34135163     0.36400
C1038       C  0.43031874  0.05328072  0.40985729     0.36300
N1039       N  0.49274599  0.97258808  0.32538349    -0.44000
N1040       N  0.41922010  0.06697306  0.42347230    -0.44000
C1041       C  0.57909254  0.84630891  0.20008481    -0.00400
C1042       C  0.59995504  0.84980083  0.21653148    -0.12200
C1043       C  0.61170975  0.83072927  0.23031370     0.01900
C1044       C  0.60265795  0.80723894  0.22792890    -0.00500
C1045       C  0.58123905  0.80392395  0.21257532    -0.12200
C1046       C  0.56948541  0.82300774  0.19879585     0.01800
H1047       H  0.60755097  0.86749811  0.21809619     0.14700
H1048       H  0.57382182  0.78617044  0.21066151     0.14700
C1049       C  0.54746120  0.81799489  0.18379745     0.36400
C1050       C  0.63292650  0.83605531  0.24689365     0.36300
N1051       N  0.52981070  0.81390420  0.17182048    -0.44000
N1052       N  0.64990751  0.84041153  0.26017009    -0.44000
C1053       C  0.60394352  0.89576258  0.08999161    -0.00400
C1054       C  0.62493722  0.88431755  0.09903564    -0.12200
C1055       C  0.63860585  0.87108099  0.07857863     0.01900
C1056       C  0.63119712  0.86954442  0.04884836    -0.00500
C1057       C  0.61243538  0.88397481  0.03914984    -0.12200
C1058       C  0.59876155  0.89708573  0.05944201     0.01800
H1059       H  0.62915888  0.88336942  0.12259850     0.14700
H1060       H  0.60684057  0.88297085  0.01602002     0.14700
C1061       C  0.57815032  0.90985236  0.04883865     0.36400
C1062       C  0.65845741  0.85710689  0.08898402     0.36300
N1063       N  0.56162385  0.92004013  0.04034668    -0.44000
N1064       N  0.67433648  0.84580467  0.09723712    -0.44000
C1065       C  0.49842783  0.92429941  0.06303695    -0.00400
C1066       C  0.50608751  0.94516717  0.04883578    -0.12200
C1067       C  0.49944171  0.95004459  0.01953900     0.01900
C1068       C  0.48448779  0.93408034  0.00431682    -0.00500
C1069       C  0.47572883  0.91398308  0.01928811    -0.12200
C1070       C  0.48266670  0.90891475  0.04829576     0.01800
H1071       H  0.51787872  0.95729185  0.06033335     0.14700
H1072       H  0.46417001  0.90157861  0.00785030     0.14700
C1073       C  0.47310906  0.88802976  0.06260118     0.36400
C1074       C  0.51485822  0.96788544  0.50267355     0.36300
N1075       N  0.46541541  0.87136168  0.07414397    -0.44000
N1076       N  0.52384147  0.98357215  0.49047973    -0.44000
C1077       C  0.52425590  0.92962547  0.25185848    -0.00400
C1078       C  0.50463639  0.91516614  0.25803816    -0.12200
C1079       C  0.49787847  0.91009161  0.28702360     0.01900
C1080       C  0.51075086  0.91991573  0.31104987    -0.00500
C1081       C  0.53048771  0.93446102  0.30489958    -0.12200
C1082       C  0.53741307  0.93923561  0.27555106     0.01800
H1083       H  0.49469866  0.90722270  0.23994220     0.14700
H1084       H  0.54056175  0.94209026  0.32303682     0.14700
C1085       C  0.55755698  0.95446685  0.27036758     0.36400
C1086       C  0.47751703  0.89480051  0.29092552     0.36300
N1087       N  0.57369483  0.96670253  0.26620026    -0.44000
N1088       N  0.46134703  0.88235650  0.29374688    -0.44000
C1089       C  0.42941249  0.19344267  0.06653302    -0.00400
C1090       C  0.42611503  0.17313042  0.08423671    -0.12200
C1091       C  0.44541996  0.16095713  0.09645954     0.01900
C1092       C  0.46874535  0.16880160  0.09064862    -0.00500
C1093       C  0.47207576  0.18974141  0.07430623    -0.12200
C1094       C  0.45275508  0.20214770  0.06238612     0.01800
H1095       H  0.40836668  0.16645065  0.08827876     0.14700
H1096       H  0.48991708  0.19618986  0.07026447     0.14700
C1097       C  0.45758284  0.22388540  0.04645861     0.36400
C1098       C  0.44070539  0.14098461  0.11570287     0.36300
N1099       N  0.46156825  0.24132271  0.03379343    -0.44000
N1100       N  0.43691456  0.12512351  0.13132274    -0.44000
C1101       C  0.52939273  0.10595143  0.00951614    -0.00400
C1102       C  0.51554314  0.09103430  0.49800462    -0.12200
C1103       C  0.50727128  0.09324281  0.46882920     0.01900
C1104       C  0.51572371  0.11182822  0.45076165    -0.00500
C1105       C  0.53342108  0.12691082  0.46160479    -0.12200
C1106       C  0.53823762  0.12443686  0.99144102     0.01800
H1107       H  0.50811746  0.07740287  0.51222822     0.14700
H1108       H  0.54012126  0.14109929  0.44762990     0.14700
C1109       C  0.55413103  0.14242885  0.00249276     0.36400
C1110       C  0.48913897  0.07714477  0.45864888     0.36300
N1111       N  0.56693453  0.15719306  0.01032635    -0.44000
N1112       N  0.47464794  0.06409305  0.45068156    -0.44000
C1113       C  0.50051265  0.11701503  0.20127262    -0.00400
C1114       C  0.50624443  0.13474095  0.22229999    -0.12200
C1115       C  0.50027499  0.13243853  0.25216527     0.01900
C1116       C  0.48835970  0.11193631  0.26208705    -0.00500
C1117       C  0.48158205  0.09454230  0.24130290    -0.12200
C1118       C  0.48759755  0.09683751  0.21105781     0.01800
H1119       H  0.51571081  0.15063050  0.21560515     0.14700
H1120       H  0.47206605  0.07891568  0.24880071     0.14700
C1121       C  0.48021042  0.07827195  0.19085106     0.36400
C1122       C  0.50593492  0.15193396  0.27201045     0.36300
N1123       N  0.47423159  0.06335346  0.17471144    -0.44000
N1124       N  0.51035353  0.16776865  0.28758028    -0.44000
C1125       C  0.55756375  0.04156018  0.11676566    -0.00400
C1126       C  0.57110777  0.03500591  0.14160853    -0.12200
C1127       C  0.57080073  0.01137690  0.15219884     0.01900
C1128       C  0.55675536  0.99409706  0.13778251    -0.00500
C1129       C  0.54471579  0.00038110  0.11177050    -0.12200
C1130       C  0.54511269  0.02372414  0.10113171     0.01800
H1131       H  0.58065176  0.04860325  0.15382978     0.14700
H1132       H  0.53426992  0.98708179  0.10019030     0.14700
C1133       C  0.53211850  0.02907836  0.07437974     0.36400
C1134       C  0.58340647  0.00574901  0.17906944     0.36300
N1135       N  0.52177373  0.03335499  0.05291654    -0.44000
N1136       N  0.59347148  0.00120644  0.20065258    -0.44000
C1137       C  0.93259428  0.68872344  0.06988919    -0.00400
C1138       C  0.91552469  0.68496774  0.04767461    -0.12200
C1139       C  0.90446113  0.70414038  0.03341819     0.01900
C1140       C  0.91061194  0.72781973  0.04095538    -0.00500
C1141       C  0.92858647  0.73165502  0.06177535    -0.12200
C1142       C  0.93938704  0.71255156  0.07647162     0.01800
H1143       H  0.91016933  0.66697667  0.04196068     0.14700
H1144       H  0.93339602  0.74976896  0.06776364     0.14700
C1145       C  0.95693618  0.71831771  0.09860247     0.36400
C1146       C  0.89347570  0.70226745  0.50484771     0.36300
N1147       N  0.97094830  0.72307354  0.11634248    -0.44000
N1148       N  0.88260788  0.69866925  0.48357358    -0.44000
C1149       C  0.90808222  0.63900932  0.18008636    -0.00400
C1150       C  0.88749022  0.65116939  0.17099473    -0.12200
C1151       C  0.87373250  0.66415370  0.19161187     0.01900
C1152       C  0.88020739  0.66427909  0.22175288    -0.00500
C1153       C  0.89869794  0.64943570  0.23126870    -0.12200
C1154       C  0.91282187  0.63701354  0.21073654     0.01800
H1155       H  0.88370969  0.65283100  0.14751519     0.14700
H1156       H  0.90372761  0.64960228  0.25449716     0.14700
C1157       C  0.93341270  0.62437661  0.22157858     0.36400
C1158       C  0.85462264  0.67906404  0.18104800     0.36300
N1159       N  0.94995293  0.61456872  0.23066646    -0.44000
N1160       N  0.83926195  0.69095137  0.17254907    -0.44000
C1161       C  0.95171293  0.49204878  0.14514783    -0.00400
C1162       C  0.95167971  0.51047718  0.16628965    -0.12200
C1163       C  0.95136349  0.53440044  0.15738342     0.01900
C1164       C  0.95211907  0.54008430  0.12693192    -0.00500
C1165       C  0.95071279  0.52166353  0.10581921    -0.12200
C1166       C  0.95001149  0.49773896  0.11476698     0.01800
H1167       H  0.95273689  0.50617817  0.18968664     0.14700
H1168       H  0.95099892  0.52592446  0.08237380     0.14700
C1169       C  0.94830301  0.47922694  0.09246064     0.36400
C1170       C  0.95078004  0.55282344  0.17984321     0.36300
N1171       N  0.94647676  0.46431562  0.07474990    -0.44000
N1172       N  0.94981768  0.56750434  0.19796296    -0.44000
C1173       C  0.04410918  0.36751152  0.16708068    -0.00400
C1174       C  0.06683422  0.37746696  0.16411901    -0.12200
C1175       C  0.08698068  0.36638816  0.17614103     0.01900
C1176       C  0.08476510  0.34469112  0.19194853    -0.00500
C1177       C  0.06208866  0.33428654  0.19387192    -0.12200
C1178       C  0.04196270  0.34535393  0.18172918     0.01800
H1179       H  0.06888065  0.39430927  0.15267882     0.14700
H1180       H  0.05984963  0.31763112  0.20565458     0.14700
C1181       C  0.01922066  0.33410638  0.18622390     0.36400
C1182       C  0.10941513  0.37840578  0.17267859     0.36300
N1183       N  0.00101253  0.32508890  0.18986894    -0.44000
N1184       N  0.12734530  0.38812761  0.16984501    -0.44000
C1185       C  0.96414571  0.66535437  0.34826389    -0.00400
C1186       C  0.96437935  0.69043013  0.34706514    -0.12200
C1187       C  0.94470659  0.70336143  0.33652461     0.01900
C1188       C  0.92409872  0.69119439  0.32700488    -0.00500
C1189       C  0.92339714  0.66628756  0.32994480    -0.12200
C1190       C  0.94296377  0.65338203  0.34036066     0.01800
H1191       H  0.98022839  0.69998078  0.35356924     0.14700
H1192       H  0.90772961  0.65661592  0.32301101     0.14700
C1193       C  0.94053537  0.62780867  0.34271759     0.36400
C1194       C  0.94616038  0.72907415  0.33593859     0.36300
N1195       N  0.93852933  0.60733021  0.34454468    -0.44000
N1196       N  0.94730675  0.74968275  0.33553893    -0.44000
C1197       C  0.01521818  0.61091337  0.20370103    -0.00400
C1198       C  0.00672942  0.59145439  0.21993685    -0.12200
C1199       C  0.01281272  0.58846475  0.24980190     0.01900
C1200       C  0.02860221  0.60458469  0.26349938    -0.00500
C1201       C  0.03822016  0.62321858  0.24658316    -0.12200
C1202       C  0.03142888  0.62669629  0.21709304     0.01800
H1203       H  0.99445477  0.57916230  0.20964713     0.14700
H1204       H  0.05020965  0.63585295  0.25685351     0.14700
C1205       C  0.04131089  0.64659247  0.20105264     0.36400
C1206       C  0.00229189  0.56897938  0.26591167     0.36300
N1207       N  0.04919885  0.66251934  0.18816902    -0.44000
N1208       N  0.99370576  0.55345703  0.27885347    -0.44000
C1209       C  0.98465357  0.60218258  0.01450004    -0.00400
C1210       C  0.00892413  0.59717917  0.50522906    -0.12200
C1211       C  0.01665487  0.60102948  0.47606479     0.01900
C1212       C  0.00098631  0.61091807  0.45521285    -0.00500
C1213       C  0.97736082  0.61533482  0.46336789    -0.12200
C1214       C  0.96868287  0.61156579  0.99319345     0.01800
H1215       H  0.02147074  0.59012153  0.52114236     0.14700
H1216       H  0.96522185  0.62264720  0.44712042     0.14700
C1217       C  0.94474487  0.61874263  0.00081815     0.36400
C1218       C  0.04063840  0.59438016  0.46789613     0.36300
N1219       N  0.92555483  0.62460026  0.00676570    -0.44000
N1220       N  0.05975063  0.58872541  0.46130350    -0.44000
C1221       C  0.01405219  0.42715488  0.06230655    -0.00400
C1222       C  0.00384477  0.44552408  0.04557714    -0.12200
C1223       C  0.01023931  0.44862231  0.01576045     0.01900
C1224       C  0.02761176  0.43353054  0.00278009    -0.00500
C1225       C  0.03921108  0.41655882  0.02045224    -0.12200
C1226       C  0.03244163  0.41313958  0.04990862     0.01800
H1227       H  0.99014110  0.45671448  0.05537379     0.14700
H1228       H  0.05660981  0.41501950  0.51253976     0.14700
C1229       C  0.04446065  0.39499954  0.06695747     0.36400
C1230       C  0.99867440  0.46719731  0.99901727     0.36300
N1231       N  0.05407821  0.38054148  0.08071898    -0.44000
N1232       N  0.98941200  0.48211361  0.98563240    -0.44000
C1233       C  0.00435344  0.41895121  0.31063684    -0.00400
C1234       C  0.98378514  0.43240860  0.30465431    -0.12200
C1235       C  0.97582853  0.43548559  0.27539284     0.01900
C1236       C  0.98904988  0.42562344  0.25151909    -0.00500
C1237       C  0.00968619  0.41240721  0.25767380    -0.12200
C1238       C  0.01728092  0.40881381  0.28667610     0.01800
H1239       H  0.97361476  0.44006907  0.32291147     0.14700
H1240       H  0.01984697  0.40436231  0.23963275     0.14700
C1241       C  0.03863916  0.39483160  0.29083824     0.36400
C1242       C  0.95431155  0.44897229  0.27056808     0.36300
N1243       N  0.05565501  0.38342324  0.29368819    -0.44000
N1244       N  0.93698221  0.45969370  0.26677977    -0.44000
C1245       C  0.05621689  0.49420032  0.39662742    -0.00400
C1246       C  0.06971623  0.50106466  0.37182826    -0.12200
C1247       C  0.06958555  0.52491158  0.36230275     0.01900
C1248       C  0.05576618  0.54203222  0.37788190    -0.00500
C1249       C  0.04410330  0.53536066  0.40413034    -0.12200
C1250       C  0.04422297  0.51177175  0.41357539     0.01800
H1251       H  0.07908964  0.48759496  0.35885536     0.14700
H1252       H  0.03407395  0.54855523  0.41681957     0.14700
C1253       C  0.03145192  0.50597118  0.44047951     0.36400
C1254       C  0.08222141  0.53088835  0.33544103     0.36300
N1255       N  0.02125517  0.50140659  0.46205982    -0.44000
N1256       N  0.09240531  0.53560882  0.31390404    -0.44000
C1257       C  0.10673648  0.30711770  0.47611812    -0.00400
C1258       C  0.11284119  0.33021729  0.48548478    -0.12200
C1259       C  0.10104574  0.35037626  0.47436147     0.01900
C1260       C  0.08267546  0.34754999  0.45324035    -0.00500
C1261       C  0.07612419  0.32426942  0.44488317    -0.12200
C1262       C  0.08805530  0.30427000  0.45572030     0.01800
H1263       H  0.12718591  0.33254424  0.50119548     0.14700
H1264       H  0.06216961  0.32156223  0.42873350     0.14700
C1265       C  0.08530390  0.27879148  0.93876002     0.36400
C1266       C  0.10907907  0.37356310  0.48404569     0.36300
N1267       N  0.08204962  0.26036985  0.92782178    -0.44000
N1268       N  0.11560538  0.39211009  0.49182187    -0.44000
C1269       C  0.13491816  0.36973026  0.30191364    -0.00400
C1270       C  0.13879412  0.36395048  0.33171253    -0.12200
C1271       C  0.12660302  0.37614500  0.35432860     0.01900
C1272       C  0.11003648  0.39405430  0.34683732    -0.00500
C1273       C  0.10892490  0.40213015  0.31749891    -0.12200
C1274       C  0.12160742  0.39028799  0.29498392     0.01800
H1275       H  0.14943593  0.34838541  0.33707678     0.14700
H1276       H  0.09643169  0.41614783  0.31178218     0.14700
C1277       C  0.11847060  0.39780043  0.26466938     0.36400
C1278       C  0.12900111  0.36781639  0.38445811     0.36300
N1279       N  0.11606997  0.40401251  0.24042292    -0.44000
N1280       N  0.13106657  0.36106688  0.40853496    -0.44000
C1281       C  0.10310222  0.89336678  0.17550793    -0.00400
C1282       C  0.11777066  0.87507882  0.16428801    -0.12200
C1283       C  0.13101350  0.86081395  0.18351350     0.01900
C1284       C  0.13014370  0.86533765  0.21438629    -0.00500
C1285       C  0.11852333  0.88601100  0.22488147    -0.12200
C1286       C  0.10468596  0.89984068  0.20569349     0.01800
H1287       H  0.11672762  0.87011132  0.14100333     0.14700
H1288       H  0.11794808  0.88978819  0.24851680     0.14700
C1289       C  0.09091668  0.91949230  0.21769665     0.36400
C1290       C  0.14344759  0.84028635  0.17140595     0.36300
N1291       N  0.07992985  0.93531476  0.22722754    -0.44000
N1292       N  0.15327662  0.82376024  0.16174998    -0.44000
C1293       C  0.08036639  0.84328875  0.32032240    -0.00400
C1294       C  0.05984507  0.83012658  0.32669122    -0.12200
C1295       C  0.03975688  0.84113342  0.33950159     0.01900
C1296       C  0.03963601  0.86608205  0.34469440    -0.00500
C1297       C  0.06036051  0.87904883  0.33842400    -0.12200
C1298       C  0.08059061  0.86793418  0.32666687     0.01800
H1299       H  0.05953857  0.81118666  0.32172672     0.14700
H1300       H  0.06080963  0.89812428  0.34258982     0.14700
C1301       C  0.10093269  0.88254439  0.31987353     0.36400
C1302       C  0.01963796  0.82638773  0.34672909     0.36300
N1303       N  0.11721066  0.89426776  0.31445032    -0.44000
N1304       N  0.00366562  0.81444600  0.35282236    -0.44000
C1305       C  0.07796077  0.69059028  0.32024443    -0.00400
C1306       C  0.07456519  0.71349417  0.33249829    -0.12200
C1307       C  0.08699454  0.73310711  0.32161054     0.01900
C1308       C  0.10317729  0.73006974  0.29789795    -0.00500
C1309       C  0.10613875  0.70746341  0.28492437    -0.12200
C1310       C  0.09353204  0.68780344  0.29559790     0.01800
H1311       H  0.06294518  0.71599122  0.35155714     0.14700
H1312       H  0.11825323  0.70520707  0.26629319     0.14700
C1313       C  0.09677098  0.66518246  0.28051293     0.36400
C1314       C  0.08409541  0.75582614  0.33655350     0.36300
N1315       N  0.09938701  0.64710453  0.26832949    -0.44000
N1316       N  0.08194149  0.77395803  0.34872376    -0.44000
C1317       C  0.37646844  0.86898321  0.30878466    -0.00400
C1318       C  0.38805884  0.88982642  0.29959841    -0.12200
C1319       C  0.40218017  0.90270661  0.31955083     0.01900
C1320       C  0.40401159  0.89506677  0.34914353    -0.00500
C1321       C  0.38967713  0.87638450  0.35916581    -0.12200
C1322       C  0.37611664  0.86313867  0.33918542     0.01800
H1323       H  0.38850040  0.89432613  0.27622522     0.14700
H1324       H  0.39111490  0.87046939  0.38198076     0.14700
C1325       C  0.36411534  0.84208225  0.34975072     0.36400
C1326       C  0.41638317  0.92216316  0.30867380     0.36300
N1327       N  0.35460011  0.82516610  0.35819326    -0.44000
N1328       N  0.42779024  0.93776583  0.29998738    -0.44000
C1329       C  0.46613038  0.87058751  0.17339017    -0.00400
C1330       C  0.46968469  0.84926870  0.18894140    -0.12200
C1331       C  0.45066576  0.83698666  0.20184275     0.01900
C1332       C  0.42707834  0.84590726  0.19920042    -0.00500
C1333       C  0.42350173  0.86671777  0.18241730    -0.12200
C1334       C  0.44262164  0.87902029  0.16965624     0.01800
H1335       H  0.48759159  0.84246180  0.19183883     0.14700
H1336       H  0.40569772  0.87382022  0.17972167     0.14700
C1337       C  0.43748331  0.90001129  0.15236150     0.36400
C1338       C  0.45629694  0.81544384  0.21785520     0.36300
N1339       N  0.43337864  0.91680448  0.13843805    -0.44000
N1340       N  0.46097862  0.79823018  0.23068023    -0.44000
C1341       C  0.27787698  0.82062625  0.25719724    -0.00400
C1342       C  0.27093377  0.81168750  0.28493942    -0.12200
C1343       C  0.24698862  0.81084835  0.29322207     0.01900
C1344       C  0.22937961  0.81889587  0.27349058    -0.00500
C1345       C  0.23631695  0.82933482  0.24653638    -0.12200
C1346       C  0.26042043  0.83012376  0.23817733     0.01800
H1347       H  0.28425815  0.80444647  0.29974212     0.14700
H1348       H  0.22283954  0.83545776  0.23121083     0.14700
C1349       C  0.26658954  0.83874733  0.20903892     0.36400
C1350       C  0.24081507  0.80130601  0.32195128     0.36300
N1351       N  0.27150613  0.84555244  0.18560969    -0.44000
N1352       N  0.23579838  0.79380768  0.34501225    -0.44000
C1353       C  0.10020404  0.80396452  0.05405371    -0.00400
C1354       C  0.08765614  0.81928708  0.03514814    -0.12200
C1355       C  0.07563091  0.83941801  0.04653660     0.01900
C1356       C  0.07558409  0.84396769  0.07745809    -0.00500
C1357       C  0.08738576  0.82802696  0.09627307    -0.12200
C1358       C  0.09981335  0.80840112  0.08489587     0.01800
H1359       H  0.08795601  0.81599470  0.01139773     0.14700
H1360       H  0.08758679  0.83132525  0.12003675     0.14700
C1361       C  0.11199140  0.79314351  0.10556219     0.36400
C1362       C  0.06346981  0.85496047  0.02611238     0.36300
N1363       N  0.12165556  0.78123695  0.12257078    -0.44000
N1364       N  0.04746027  0.86486641  0.51064876    -0.44000
C1365       C  0.13356077  0.66772298  0.46417661    -0.00400
C1366       C  0.13716582  0.67193428  0.43386186    -0.12200
C1367       C  0.12462936  0.65888077  0.41251961     0.01900
C1368       C  0.10772382  0.64192779  0.42164817    -0.00500
C1369       C  0.10624887  0.63580474  0.45166336    -0.12200
C1370       C  0.11934123  0.64831803  0.47294441     0.01800
H1371       H  0.14807526  0.68682034  0.42698543     0.14700
H1372       H  0.09330301  0.62279341  0.45878092     0.14700
C1373       C  0.11909650  0.64182513  0.00273218     0.36400
C1374       C  0.12755489  0.66486214  0.38158487     0.36300
N1375       N  0.11772300  0.63650240  0.02745095    -0.44000
N1376       N  0.13004558  0.66954937  0.35678593    -0.44000
C1377       C  0.08159054  0.68848720  0.06698999    -0.00400
C1378       C  0.05824797  0.69574944  0.06044714    -0.12200
C1379       C  0.03861793  0.68365409  0.07186106     0.01900
C1380       C  0.04200748  0.66386165  0.09062505    -0.00500
C1381       C  0.06518366  0.65649870  0.09726696    -0.12200
C1382       C  0.08488867  0.66851626  0.08580851     0.01800
H1383       H  0.05517036  0.71066589  0.04571558     0.14700
H1384       H  0.06793098  0.64136062  0.11177314     0.14700
C1385       C  0.10809001  0.65994457  0.09432071     0.36400
C1386       C  0.01528713  0.69112068  0.06239076     0.36300
N1387       N  0.12663445  0.65304059  0.10127679    -0.44000
N1388       N  0.99669799  0.69708315  0.05442266    -0.44000
C1389       C  0.15780064  0.77602919  0.43876592    -0.00400
C1390       C  0.16997100  0.76022325  0.41983396    -0.12200
C1391       C  0.17414245  0.76596518  0.39006416     0.01900
C1392       C  0.16557014  0.78783798  0.37850708    -0.00500
C1393       C  0.15452823  0.80421666  0.39811640    -0.12200
C1394       C  0.15060751  0.79845499  0.42804553     0.01800
H1395       H  0.17579607  0.74306362  0.42822483     0.14700
H1396       H  0.14786448  0.82106594  0.38978013     0.14700
C1397       C  0.13814266  0.81525385  0.44701357     0.36400
C1398       C  0.18726469  0.74898692  0.37202687     0.36300
N1399       N  0.12816042  0.82865561  0.46231537    -0.44000
N1400       N  0.19783525  0.73536571  0.35766977    -0.44000
C1401       C  0.15959709  0.75735165  0.18864488    -0.00400
C1402       C  0.14242699  0.74262685  0.17574855    -0.12200
C1403       C  0.14456159  0.73488059  0.14630575     0.01900
C1404       C  0.16419525  0.74207455  0.12892430    -0.00500
C1405       C  0.18189873  0.75606122  0.14216818    -0.12200
C1406       C  0.17988574  0.76353299  0.17188563     0.01800
H1407       H  0.12676281  0.73783972  0.18847026     0.14700
H1408       H  0.19696556  0.76179196  0.12897646     0.14700
C1409       C  0.19803808  0.77880775  0.18393104     0.36400
C1410       C  0.12487113  0.72200688  0.13377093     0.36300
N1411       N  0.21262101  0.79103720  0.19354284    -0.44000
N1412       N  0.10868580  0.71206181  0.12416625    -0.44000
C1413       C  0.40696192  0.81156188  0.48056410    -0.00400
C1414       C  0.42859225  0.80717199  0.46591479    -0.12200
C1415       C  0.44131546  0.82560489  0.45257646     0.01900
C1416       C  0.43273106  0.84945729  0.45438297    -0.00500
C1417       C  0.41192707  0.85400928  0.47095276    -0.12200
C1418       C  0.39897841  0.83542631  0.48377319     0.01800
H1419       H  0.43510982  0.78900756  0.46355852     0.14700
H1420       H  0.40511728  0.87208863  0.47297934     0.14700
C1421       C  0.37754972  0.84150098  0.49996091     0.36400
C1422       C  0.46260724  0.81900466  0.43638597     0.36300
N1423       N  0.36037586  0.84642753  0.51288555    -0.44000
N1424       N  0.47949396  0.81349399  0.42322263    -0.44000
C1425       C  0.34643552  0.75288642  0.39675985    -0.00400
C1426       C  0.32802682  0.74813017  0.37679396    -0.12200
C1427       C  0.33059182  0.75337666  0.34642386     0.01900
C1428       C  0.35212261  0.76332226  0.33572683    -0.00500
C1429       C  0.37080186  0.76672053  0.35594213    -0.12200
C1430       C  0.36811769  0.76173695  0.38597598     0.01800
H1431       H  0.31142817  0.74098140  0.38506432     0.14700
H1432       H  0.38769792  0.77374380  0.34851101     0.14700
C1433       C  0.38821260  0.76542696  0.40524950     0.36400
C1434       C  0.31070075  0.74874025  0.32721438     0.36300
N1435       N  0.40440549  0.76824904  0.42052431    -0.44000
N1436       N  0.29468542  0.74495480  0.31194123    -0.44000
C1437       C  0.34854048  0.78126912  0.08414623    -0.00400
C1438       C  0.33137795  0.76915661  0.10081059    -0.12200
C1439       C  0.32757164  0.77477868  0.13082774     0.01900
C1440       C  0.34088008  0.79311879  0.14440157    -0.00500
C1441       C  0.35706737  0.80610426  0.12702840    -0.12200
C1442       C  0.36114369  0.80016574  0.09723306     0.01800
H1443       H  0.32163678  0.75463438  0.09067724     0.14700
H1444       H  0.36744936  0.82019277  0.13709039     0.14700
C1445       C  0.37852409  0.81350398  0.08057913     0.36400
C1446       C  0.31004042  0.76138981  0.14710364     0.36300
N1447       N  0.39241499  0.82418374  0.06718882    -0.44000
N1448       N  0.29597400  0.75061262  0.16007315    -0.44000
C1449       C  0.28015569  0.72717513  0.50948635    -0.00400
C1450       C  0.26712830  0.70636789  0.50333874    -0.12200
C1451       C  0.24166385  0.70555876  0.00577833     0.01900
C1452       C  0.23072134  0.72425296  0.02207014    -0.00500
C1453       C  0.24465476  0.74296436  0.03276040    -0.12200
C1454       C  0.26871121  0.74431333  0.02609493     0.01800
H1455       H  0.27571258  0.69154356  0.49191854     0.14700
H1456       H  0.23648777  0.75707775  0.04600328     0.14700
C1457       C  0.28136572  0.76450971  0.03802085     0.36400
C1458       C  0.22801586  0.68592948  0.99417759     0.36300
N1459       N  0.29055304  0.78109120  0.04803658    -0.44000
N1460       N  0.21706628  0.67019961  0.98483672    -0.44000
C1461       C  0.54124385  0.66726682  0.17655401    -0.00400
C1462       C  0.56419352  0.65775350  0.17349537    -0.12200
C1463       C  0.58387080  0.66981638  0.18480643     0.01900
C1464       C  0.58074190  0.69198985  0.19963186    -0.00500
C1465       C  0.55770104  0.70154174  0.20248825    -0.12200
C1466       C  0.53803303  0.68942248  0.19115638     0.01800
H1467       H  0.56672697  0.64061719  0.16251085     0.14700
H1468       H  0.55496073  0.71832382  0.21420609     0.14700
C1469       C  0.51465362  0.69930843  0.19661135     0.36400
C1470       C  0.60676699  0.65819322  0.18243615     0.36300
N1471       N  0.49592665  0.70715285  0.20118487    -0.44000
N1472       N  0.62508674  0.64882409  0.18061271    -0.44000
C1473       C  0.42839667  0.69132875  0.20029168    -0.00400
C1474       C  0.43343155  0.71431359  0.18949597    -0.12200
C1475       C  0.42121321  0.73442357  0.20006855     0.01900
C1476       C  0.40359369  0.73188541  0.22204102    -0.00500
C1477       C  0.39880169  0.70922329  0.23349367    -0.12200
C1478       C  0.41112718  0.68901654  0.22311075     0.01800
H1479       H  0.44632829  0.71661999  0.17180396     0.14700
H1480       H  0.38540705  0.70733845  0.25071014     0.14700
C1481       C  0.40558829  0.66633782  0.23643636     0.36400
C1482       C  0.42586389  0.75722360  0.18649443     0.36300
N1483       N  0.40109472  0.64820839  0.24719714    -0.44000
N1484       N  0.42939437  0.77543624  0.17540209    -0.44000
C1485       C  0.40201841  0.64416681  0.09676267    -0.00400
C1486       C  0.40516218  0.63994669  0.06634715    -0.12200
C1487       C  0.39364675  0.65425974  0.04552680     0.01900
C1488       C  0.37875706  0.67313551  0.05533557    -0.00500
C1489       C  0.37362918  0.67561180  0.08567227    -0.12200
C1490       C  0.38506337  0.66119033  0.10645569     0.01800
H1491       H  0.41859257  0.62724471  0.05892735     0.14700
H1492       H  0.36225594  0.69013832  0.09326709     0.14700
C1493       C  0.38144634  0.66633660  0.13763489     0.36400
C1494       C  0.40017659  0.65139028  0.01465790     0.36300
N1495       N  0.37846274  0.67061145  0.16254946    -0.44000
N1496       N  0.40562729  0.64903054  0.99000974    -0.44000
C1497       C  0.40488610  0.30691819  0.04561247    -0.00400
C1498       C  0.42768616  0.30326171  0.05732341    -0.12200
C1499       C  0.44055214  0.32211929  0.06970947     0.01900
C1500       C  0.43064395  0.34538245  0.07047043    -0.00500
C1501       C  0.40834841  0.34922466  0.05750345    -0.12200
C1502       C  0.39546058  0.33039059  0.04520081     0.01800
H1503       H  0.43530883  0.28544780  0.05756173     0.14700
H1504       H  0.40052806  0.36695911  0.05776686     0.14700
C1505       C  0.37268817  0.33590696  0.03226006     0.36400
C1506       C  0.46387716  0.31695456  0.08130017     0.36300
N1507       N  0.35445570  0.34042191  0.02192257    -0.44000
N1508       N  0.48254156  0.31273662  0.09058880    -0.44000
C1509       C  0.40897585  0.39339898  0.18020181    -0.00400
C1510       C  0.38848251  0.38178357  0.17014773    -0.12200
C1511       C  0.37440559  0.36878790  0.18990936     0.01900
C1512       C  0.38046830  0.36812012  0.22017269    -0.00500
C1513       C  0.39874201  0.38272814  0.23075401    -0.12200
C1514       C  0.41331285  0.39502745  0.21092731     0.01800
H1515       H  0.38498441  0.38060672  0.14652702     0.14700
H1516       H  0.40343523  0.38226381  0.25407779     0.14700
C1517       C  0.43379547  0.40742354  0.22229198     0.36400
C1518       C  0.35503238  0.35475892  0.17847212     0.36300
N1519       N  0.45026973  0.41727967  0.23132550    -0.44000
N1520       N  0.33946460  0.34352782  0.16940660    -0.44000
C1521       C  0.45565261  0.49381091  0.12350196    -0.00400
C1522       C  0.44250441  0.50085288  0.14870880    -0.12200
C1523       C  0.44163783  0.52495499  0.15756534     0.01900
C1524       C  0.45384284  0.54219232  0.14073370    -0.00500
C1525       C  0.46530046  0.53523041  0.11431500    -0.12200
C1526       C  0.46635778  0.51134088  0.10565755     0.01800
H1527       H  0.43425659  0.48740168  0.16248581     0.14700
H1528       H  0.47440675  0.54845921  0.10101440     0.14700
C1529       C  0.47911890  0.50516941  0.07872086     0.36400
C1530       C  0.43002603  0.53119964  0.18519938     0.36300
N1531       N  0.48936194  0.50019329  0.05719310    -0.44000
N1532       N  0.42080725  0.53620745  0.20742132    -0.44000
C1533       C  0.57641359  0.68906128  0.44922998    -0.00400
C1534       C  0.59665011  0.68472495  0.46652195    -0.12200
C1535       C  0.60919865  0.70349198  0.47976245     0.01900
C1536       C  0.60144000  0.72739005  0.47614004    -0.00500
C1537       C  0.58065105  0.73163687  0.45988830    -0.12200
C1538       C  0.56821796  0.71291063  0.44642583     0.01800
H1539       H  0.60316353  0.66662703  0.46904637     0.14700
H1540       H  0.57583187  0.74931877  0.95984909     0.14700
C1541       C  0.54707220  0.71890899  0.42999867     0.36400
C1542       C  0.62989556  0.69751099  0.49703940     0.36300
N1543       N  0.52958477  0.72390864  0.92258561    -0.44000
N1544       N  0.64649752  0.69265238  0.51081442    -0.44000
C1545       C  0.59963179  0.63928807  0.34214895    -0.00400
C1546       C  0.61832300  0.65325124  0.35298690    -0.12200
C1547       C  0.63160715  0.66738553  0.33363338     0.01900
C1548       C  0.62657694  0.66692195  0.30306262    -0.00500
C1549       C  0.61066743  0.64998039  0.29187753    -0.12200
C1550       C  0.59694330  0.63632359  0.31125953     0.01800
H1551       H  0.62062289  0.65541264  0.37676555     0.14700
H1552       H  0.60695172  0.64939785  0.26825665     0.14700
C1553       C  0.57874039  0.62108882  0.29917809     0.36400
C1554       C  0.64896181  0.68355451  0.34572842     0.36300
N1555       N  0.56416273  0.60886956  0.28952258    -0.44000
N1556       N  0.66292480  0.69645273  0.35543794    -0.44000
C1557       C  0.46367774  0.67387833  0.42162081    -0.00400
C1558       C  0.46797102  0.69454916  0.43845043    -0.12200
C1559       C  0.44921711  0.70755301  0.45137746     0.01900
C1560       C  0.42549115  0.69990062  0.44747559    -0.00500
C1561       C  0.42121413  0.68032062  0.42866666    -0.12200
C1562       C  0.43994933  0.66728762  0.41590408     0.01800
H1563       H  0.48609422  0.70008604  0.44247508     0.14700
H1564       H  0.40316637  0.67444854  0.42488646     0.14700
C1565       C  0.43423038  0.64726706  0.39695202     0.36400
C1566       C  0.45498394  0.72862926  0.46843776     0.36300
N1567       N  0.42955733  0.62790983  0.88463213    -0.44000
N1568       N  0.45970170  0.74550838  0.48206112    -0.44000
C1569       C  0.51651994  0.60496587  0.00252775    -0.00400
C1570       C  0.53449823  0.60260735  0.02400158    -0.12200
C1571       C  0.52953661  0.60590183  0.05437863     0.01900
C1572       C  0.50638087  0.61226823  0.06357531    -0.00500
C1573       C  0.48826274  0.61331591  0.04255932    -0.12200
C1574       C  0.49286454  0.60939475  0.01250311     0.01800
H1575       H  0.55260636  0.59883998  0.01707737     0.14700
H1576       H  0.47025841  0.61747857  0.04972685     0.14700
C1577       C  0.47571775  0.59793875  0.49760870     0.36400
C1578       C  0.54863963  0.60381799  0.07544241     0.36300
N1579       N  0.45928069  0.59336933  0.48340842    -0.44000
N1580       N  0.56390745  0.60204962  0.09238538    -0.44000
C1581       C  0.49208321  0.61444495  0.31439116    -0.00400
C1582       C  0.50236991  0.59521145  0.29882127    -0.12200
C1583       C  0.49651657  0.59077393  0.26913927     0.01900
C1584       C  0.47951113  0.60535571  0.25502089    -0.00500
C1585       C  0.46834032  0.62378338  0.27128401    -0.12200
C1586       C  0.47476759  0.62867466  0.30055964     0.01800
H1587       H  0.51576796  0.58429002  0.30948646     0.14700
H1588       H  0.45545305  0.63529778  0.26058816     0.14700
C1589       C  0.46365334  0.64863271  0.31572327     0.36400
C1590       C  0.50839846  0.57142892  0.25367897     0.36300
N1591       N  0.45477840  0.66472011  0.32769980    -0.44000
N1592       N  0.51801956  0.55596803  0.24131713    -0.44000
C1593       C  0.42732952  0.34077073  0.32339149    -0.00400
C1594       C  0.42351960  0.35873193  0.34483233    -0.12200
C1595       C  0.44256857  0.37061487  0.35803410     0.01900
C1596       C  0.46615116  0.36431544  0.35028594    -0.00500
C1597       C  0.47005536  0.34540669  0.33030604    -0.12200
C1598       C  0.45102188  0.33380819  0.31660201     0.01800
H1599       H  0.40555947  0.36419529  0.35057722     0.14700
H1600       H  0.48808824  0.34035049  0.32434864     0.14700
C1601       C  0.45654458  0.31503790  0.29549918     0.36400
C1602       C  0.43735015  0.38925232  0.37944355     0.36300
N1603       N  0.46103173  0.30004404  0.27855519    -0.44000
N1604       N  0.43312764  0.40420916  0.39653782    -0.44000
C1605       C  0.52717838  0.42295176  0.26658145    -0.00400
C1606       C  0.52767166  0.44304410  0.24821114    -0.12200
C1607       C  0.52218048  0.44111619  0.21784037     0.01900
C1608       C  0.51598638  0.41863605  0.20552620    -0.00500
C1609       C  0.51713756  0.39842581  0.22399679    -0.12200
C1610       C  0.52256153  0.40042221  0.25409129     0.01800
H1611       H  0.53156267  0.46037148  0.25781046     0.14700
H1612       H  0.51323135  0.38084652  0.21517422     0.14700
C1613       C  0.52318466  0.37901734  0.27183276     0.36400
C1614       C  0.52246427  0.46259286  0.20035388     0.36300
N1615       N  0.52378609  0.36185707  0.28596676    -0.44000
N1616       N  0.52281040  0.47986647  0.18642116    -0.44000
C1617       C  0.48238060  0.43207414  0.01539198    -0.00400
C1618       C  0.50073106  0.44596506  0.00332627    -0.12200
C1619       C  0.50757375  0.44284629  0.47298020     0.01900
C1620       C  0.49450030  0.42728044  0.45472052    -0.00500
C1621       C  0.47491592  0.41533537  0.46652436    -0.12200
C1622       C  0.46885391  0.41770706  0.49654455     0.01800
H1623       H  0.51075116  0.45774406  0.01768616     0.14700
H1624       H  0.46480167  0.40343773  0.45239482     0.14700
C1625       C  0.44874149  0.40432461  0.50718367     0.36400
C1626       C  0.52751502  0.45599572  0.46137338     0.36300
N1627       N  0.43244581  0.39362202  0.51520260    -0.44000
N1628       N  0.54346399  0.46650300  0.45195128    -0.44000
C1629       C  0.54478096  0.54271421  0.38919389    -0.00400
C1630       C  0.56462693  0.52872748  0.39689040    -0.12200
C1631       C  0.56626214  0.50448562  0.38838746     0.01900
C1632       C  0.54796758  0.49401466  0.37131492    -0.00500
C1633       C  0.52908732  0.50864811  0.36211259    -0.12200
C1634       C  0.52713656  0.53239001  0.37103175     0.01800
H1635       H  0.57838842  0.53644440  0.41060561     0.14700
H1636       H  0.51509437  0.50135251  0.34837989     0.14700
C1637       C  0.50639612  0.54533285  0.36115116     0.36400
C1638       C  0.58634028  0.49073689  0.39851115     0.36300
N1639       N  0.48939462  0.55491544  0.35305730    -0.44000
N1640       N  0.60246179  0.47973814  0.40665960    -0.44000
C1641       C  0.60782035  0.23029397  0.03838390    -0.00400
C1642       C  0.58589095  0.23400971  0.05272853    -0.12200
C1643       C  0.57341872  0.21506662  0.06552146     0.01900
C1644       C  0.58290716  0.19156549  0.06424999    -0.00500
C1645       C  0.60419906  0.18773032  0.04843122    -0.12200
C1646       C  0.61654978  0.20665550  0.03546376     0.01800
H1647       H  0.57872092  0.25195854  0.05480770     0.14700
H1648       H  0.61161707  0.16987155  0.04667981     0.14700
C1649       C  0.63800509  0.20111594  0.01904992     0.36400
C1650       C  0.55097116  0.22053515  0.07975301     0.36300
N1651       N  0.65515884  0.19666093  0.00583049    -0.44000
N1652       N  0.53301108  0.22505479  0.09112775    -0.44000
C1653       C  0.60104732  0.39461582  0.43191860    -0.00400
C1654       C  0.62086868  0.38290939  0.41943175    -0.12200
C1655       C  0.63633138  0.36964882  0.43716596     0.01900
C1656       C  0.63289079  0.36915180  0.46819185    -0.00500
C1657       C  0.61507474  0.38359779  0.48099063    -0.12200
C1658       C  0.59872793  0.39571616  0.46312396     0.01800
H1659       H  0.62273336  0.38175772  0.39546918     0.14700
H1660       H  0.61207047  0.38304970  0.50480176     0.14700
C1661       C  0.57872584  0.40738617  0.47730702     0.36400
C1662       C  0.65399640  0.35478199  0.42272323     0.36300
N1663       N  0.56268183  0.41644970  0.48901224    -0.44000
N1664       N  0.66790324  0.34274176  0.41087574    -0.44000
C1665       C  0.54476478  0.36687544  0.09288537    -0.00400
C1666       C  0.54130215  0.34780694  0.07312210    -0.12200
C1667       C  0.56063208  0.33543056  0.06063055     0.01900
C1668       C  0.58413265  0.34193083  0.06823954    -0.00500
C1669       C  0.58743105  0.36039575  0.08907298    -0.12200
C1670       C  0.56809001  0.37289479  0.10126195     0.01800
H1671       H  0.52340522  0.34296236  0.06678354     0.14700
H1672       H  0.60523608  0.36558309  0.09534888     0.14700
C1673       C  0.57266958  0.39149020  0.12280452     0.36400
C1674       C  0.55562966  0.31614575  0.04021869     0.36300
N1675       N  0.57631522  0.40634592  0.14012201    -0.44000
N1676       N  0.55152889  0.30075082  0.02382011    -0.44000
C1677       C  0.78196137  0.31853727  0.49564548    -0.00400
C1678       C  0.77188488  0.33473564  0.01679801    -0.12200
C1679       C  0.74809900  0.33530760  0.02672349     0.01900
C1680       C  0.73169622  0.31899350  0.01476483    -0.00500
C1681       C  0.73891495  0.30370772  0.99167634    -0.12200
C1682       C  0.76455191  0.30575712  0.47987318     0.01800
H1683       H  0.78487599  0.34617772  0.02729514     0.14700
H1684       H  0.72838769  0.29430426  0.47906115     0.14700
C1685       C  0.77017327  0.29251126  0.45308733     0.36400
C1686       C  0.74142932  0.35126171  0.05063632     0.36300
N1687       N  0.77450516  0.28206036  0.43147778    -0.44000
N1688       N  0.73606785  0.36402365  0.06986071    -0.44000
C1689       C  0.90968278  0.23150218  0.46550083    -0.00400
C1690       C  0.92367036  0.21745435  0.48430117    -0.12200
C1691       C  0.93639785  0.19775036  0.47310219     0.01900
C1692       C  0.93535805  0.19218124  0.44253033    -0.00500
C1693       C  0.92225170  0.20702098  0.42363195    -0.12200
C1694       C  0.90940218  0.22647750  0.43484835     0.01800
H1695       H  0.92085196  0.22141742  0.00899000     0.14700
H1696       H  0.92164327  0.20311673  0.40003176     0.14700
C1697       C  0.89671242  0.24146781  0.41429555     0.36400
C1698       C  0.94832260  0.18450325  0.99471937     0.36300
N1699       N  0.88685541  0.25350374  0.39756537    -0.44000
N1700       N  0.95981375  0.17372511  0.01115766    -0.44000
C1701       C  0.87852948  0.36882139  0.05031523    -0.00400
C1702       C  0.87407318  0.36606342  0.08075176    -0.12200
C1703       C  0.88684480  0.37922214  0.10176847     0.01900
C1704       C  0.90537188  0.39429820  0.09219771    -0.00500
C1705       C  0.90752980  0.39937134  0.06185846    -0.12200
C1706       C  0.89377665  0.38722396  0.04092079     0.01800
H1707       H  0.86202013  0.35225699  0.08812663     0.14700
H1708       H  0.92125009  0.41146798  0.05436236     0.14700
C1709       C  0.89762557  0.39213657  0.00985771     0.36400
C1710       C  0.88238787  0.37483665  0.13285403     0.36300
N1711       N  0.90056455  0.39638399  0.98501645    -0.44000
N1712       N  0.87867145  0.37137567  0.15774598    -0.44000
C1713       C  0.93048374  0.34114828  0.44336835    -0.00400
C1714       C  0.92715257  0.36220421  0.42716915    -0.12200
C1715       C  0.94641483  0.37457157  0.41517973     0.01900
C1716       C  0.96983631  0.36583085  0.41908181    -0.00500
C1717       C  0.97303110  0.34384805  0.43341123    -0.12200
C1718       C  0.95370210  0.33149957  0.44548942     0.01800
H1719       H  0.90944303  0.36962385  0.42476917     0.14700
H1720       H  0.99078048  0.33658085  0.43602547     0.14700
C1721       C  0.95827438  0.30885389  0.45955594     0.36400
C1722       C  0.94141557  0.39617010  0.39896529     0.36300
N1723       N  0.96197221  0.29066582  0.47069853    -0.44000
N1724       N  0.93736090  0.41347641  0.38601319    -0.44000
C1725       C  0.66638293  0.28390131  0.12483625    -0.00400
C1726       C  0.66999631  0.30135890  0.14701096    -0.12200
C1727       C  0.66620858  0.29624585  0.17716853     0.01900
C1728       C  0.65861119  0.27329815  0.18554021    -0.00500
C1729       C  0.65570512  0.25576530  0.16362275    -0.12200
C1730       C  0.65935953  0.26068092  0.13372235     0.01800
H1731       H  0.67527341  0.31922318  0.14080299     0.14700
H1732       H  0.65023277  0.23794243  0.16990253     0.14700
C1733       C  0.65465969  0.24143754  0.11306298     0.36400
C1734       C  0.66902102  0.31513193  0.19877506     0.36300
N1735       N  0.65077458  0.22590984  0.09677062    -0.44000
N1736       N  0.67121269  0.33029740  0.21608313    -0.44000
C1737       C  0.67458377  0.24378089  0.37527054    -0.00400
C1738       C  0.68856768  0.26282915  0.38549053    -0.12200
C1739       C  0.68649006  0.27125666  0.41471632     0.01900
C1740       C  0.67022964  0.26047073  0.43424712    -0.00500
C1741       C  0.65739860  0.24058299  0.42479029    -0.12200
C1742       C  0.65944038  0.23205735  0.39570822     0.01800
H1743       H  0.70031231  0.27195886  0.37021409     0.14700
H1744       H  0.64498777  0.23222173  0.43997388     0.14700
C1745       C  0.64433012  0.21243737  0.38730057     0.36400
C1746       C  0.69964215  0.29222738  0.42310047     0.36300
N1747       N  0.63214450  0.19671173  0.38083976    -0.44000
N1748       N  0.71016841  0.30923258  0.42910835    -0.44000
C1749       C  0.63024588  0.16836061  0.21626476    -0.00400
C1750       C  0.63670237  0.17080833  0.18637497    -0.12200
C1751       C  0.62495711  0.15776434  0.16433193     0.01900
C1752       C  0.60603410  0.14265250  0.17230906    -0.00500
C1753       C  0.60144945  0.13829866  0.20238449    -0.12200
C1754       C  0.61367272  0.15080440  0.22441446     0.01800
H1755       H  0.64944150  0.18433548  0.18007430     0.14700
H1756       H  0.58694270  0.12666195  0.20859021     0.14700
C1757       C  0.60744188  0.14683638  0.25510640     0.36400
C1758       C  0.63061492  0.16237856  0.13359270     0.36300
N1759       N  0.60250973  0.14336523  0.27965819    -0.44000
N1760       N  0.63518548  0.16599124  0.10895800    -0.44000
C1761       C  0.58471147  0.19670987  0.32493077    -0.00400
C1762       C  0.58794992  0.17423116  0.33799377    -0.12200
C1763       C  0.56887688  0.16156409  0.35002420     0.01900
C1764       C  0.54559638  0.17122959  0.34912959    -0.00500
C1765       C  0.54262085  0.19455939  0.33844049    -0.12200
C1766       C  0.56176425  0.20734293  0.32654267     0.01800
H1767       H  0.60541234  0.16599148  0.33800866     0.14700
H1768       H  0.52506655  0.20261610  0.33834667     0.14700
C1769       C  0.55699085  0.23118399  0.31599432     0.36400
C1770       C  0.57397307  0.13866905  0.36315001     0.36300
N1771       N  0.55308642  0.25029847  0.30766424    -0.44000
N1772       N  0.57810561  0.12034601  0.37369838    -0.44000
C1773       C  0.58245235  0.34495803  0.32973358    -0.00400
C1774       C  0.58532359  0.34372775  0.29873086    -0.12200
C1775       C  0.59811100  0.32495879  0.28534539     0.01900
C1776       C  0.60867287  0.30727428  0.30311843    -0.00500
C1777       C  0.60611389  0.30857727  0.33403115    -0.12200
C1778       C  0.59300597  0.32703633  0.34745663     0.01800
H1779       H  0.57754319  0.35744733  0.28491272     0.14700
H1780       H  0.61431837  0.29501346  0.34773708     0.14700
C1781       C  0.59156468  0.32755514  0.37950181     0.36400
C1782       C  0.60098894  0.32471167  0.25347597     0.36300
N1783       N  0.59043639  0.32786330  0.40516653    -0.44000
N1784       N  0.60339783  0.32454304  0.22794530    -0.44000
C1785       C  0.85083150  0.25765541  0.07769568    -0.00400
C1786       C  0.83102496  0.26591193  0.09386779    -0.12200
C1787       C  0.82794688  0.25961651  0.12373315     0.01900
C1788       C  0.84448306  0.24422582  0.13738533    -0.00500
C1789       C  0.86326764  0.23466313  0.12054532    -0.12200
C1790       C  0.86677928  0.24153335  0.09109673     0.01800
H1791       H  0.81868512  0.27827789  0.08366349     0.14700
H1792       H  0.87610357  0.22293015  0.13097719     0.14700
C1793       C  0.88726810  0.23223232  0.07542521     0.36400
C1794       C  0.80797591  0.26939478  0.14006607     0.36300
N1795       N  0.90383409  0.22468063  0.06324805    -0.44000
N1796       N  0.79198606  0.27719214  0.15322227    -0.44000
C1797       C  0.84711025  0.27821370  0.32709410    -0.00400
C1798       C  0.83449271  0.26308027  0.34595032    -0.12200
C1799       C  0.83137423  0.26884940  0.37598505     0.01900
C1800       C  0.84136412  0.29004349  0.38764944    -0.00500
C1801       C  0.85230663  0.30607767  0.36802302    -0.12200
C1802       C  0.85523654  0.30028911  0.33791577     0.01800
H1803       H  0.82793165  0.24621616  0.33744644     0.14700
H1804       H  0.85976225  0.32256596  0.37644716     0.14700
C1805       C  0.86701987  0.31699940  0.31864968     0.36400
C1806       C  0.81824177  0.25243849  0.39429887     0.36300
N1807       N  0.87616728  0.33058934  0.30318434    -0.44000
N1808       N  0.80766806  0.23924483  0.40886334    -0.44000
C1809       C  0.78104685  0.21727447  0.24231174    -0.00400
C1810       C  0.76501509  0.23012484  0.22478082    -0.12200
C1811       C  0.74081237  0.23090622  0.23158138     0.01900
C1812       C  0.73201148  0.21888875  0.25684342    -0.00500
C1813       C  0.74770774  0.20432932  0.27302261    -0.12200
C1814       C  0.77213146  0.20342948  0.26592080     0.01800
H1815       H  0.77162105  0.24037788  0.20614401     0.14700
H1816       H  0.74119993  0.19482821  0.29228741     0.14700
C1817       C  0.78785200  0.18968672  0.28443518     0.36400
C1818       C  0.72552173  0.24455429  0.21232645     0.36300
N1819       N  0.80046273  0.17863451  0.29925482    -0.44000
N1820       N  0.71347422  0.25551086  0.19670539    -0.44000
C1821       C  0.88345150  0.16839374  0.30031274    -0.00400
C1822       C  0.87856388  0.17016231  0.33079597    -0.12200
C1823       C  0.89195287  0.15718984  0.35135885     0.01900
C1824       C  0.91130815  0.14299192  0.34138317    -0.00500
C1825       C  0.91436651  0.13918807  0.31077914    -0.12200
C1826       C  0.90032581  0.15139073  0.29022374     0.01800
H1827       H  0.86549001  0.18305169  0.33866138     0.14700
H1828       H  0.92889899  0.12799876  0.30289131     0.14700
C1829       C  0.90551510  0.14813172  0.25901327     0.36400
C1830       C  0.88698438  0.16080927  0.38255160     0.36300
N1831       N  0.90969372  0.14532656  0.23404722    -0.44000
N1832       N  0.88282032  0.16360567  0.40752364    -0.44000
C1833       C  0.93277311  0.19407819  0.20041988    -0.00400
C1834       C  0.93427704  0.19008977  0.16958221    -0.12200
C1835       C  0.95403678  0.17833191  0.15692698     0.01900
C1836       C  0.97229428  0.16971615  0.17537702    -0.00500
C1837       C  0.97103903  0.17404105  0.20596175    -0.12200
C1838       C  0.95179385  0.18635213  0.21855645     0.01800
H1839       H  0.91995598  0.19604100  0.15538571     0.14700
H1840       H  0.98510128  0.16746397  0.22016991     0.14700
C1841       C  0.95159821  0.18954736  0.25042085     0.36400
C1842       C  0.95475341  0.17443706  0.12521345     0.36300
N1843       N  0.95149803  0.19210633  0.27593720    -0.44000
N1844       N  0.95538938  0.17137070  0.09978699    -0.44000
C1845       C  0.90802513  0.30445034  0.21670038    -0.00400
C1846       C  0.90729382  0.30769401  0.18593694    -0.12200
C1847       C  0.91998873  0.32607504  0.17248275     0.01900
C1848       C  0.93263481  0.34255262  0.19025405    -0.00500
C1849       C  0.93377586  0.33892323  0.22105029    -0.12200
C1850       C  0.92218190  0.31958059  0.23422612     0.01800
H1851       H  0.89690158  0.29563428  0.17233499     0.14700
H1852       H  0.94392133  0.35108323  0.23477345     0.14700
C1853       C  0.92492145  0.31570633  0.26565856     0.36400
C1854       C  0.91920097  0.32777140  0.14050054     0.36300
N1855       N  0.92741568  0.31243052  0.29078903    -0.44000
N1856       N  0.91870460  0.32886971  0.11486079    -0.44000
Fe1857     Fe  0.84333109  0.26461935  0.73066973     1.65800
Fe1858     Fe  0.89206564  0.24058039  0.76439829     1.73200
Fe1859     Fe  0.85719252  0.20532661  0.72009420     1.54400
O1860       O  0.82171713  0.20637082  0.73347399    -0.81900
O1861       O  0.91430299  0.22192720  0.73601189    -0.80200
O1862       O  0.81283006  0.24521457  0.73568462    -0.84400
O1863       O  0.84353391  0.25890507  0.68567065    -0.79200
O1864       O  0.86509149  0.18572314  0.75772087    -0.81000
O1865       O  0.90328039  0.27156782  0.74439193    -0.83800
C1866       C  0.84584659  0.24073911  0.66905627     0.97000
C1867       C  0.80700347  0.22344431  0.73716787     1.04400
O1868       O  0.86419268  0.23677156  0.73842943    -1.12700
O1869       O  0.87303305  0.25893895  0.79629946    -0.75200
O1870       O  0.84048536  0.27380542  0.77511416    -0.78700
O1871       O  0.84965137  0.21994444  0.67903096    -0.79400
C1872       C  0.85347884  0.27018744  0.79754164     0.95900
O1873       O  0.87119682  0.28753747  0.72362469    -0.77300
O1874       O  0.88518170  0.21005795  0.78767387    -0.82500
C1875       C  0.91183773  0.20721245  0.71472934     0.98500
C1876       C  0.87639992  0.18990981  0.78145503     1.04400
O1877       O  0.89170830  0.20067105  0.70515271    -0.78200
C1878       C  0.89315766  0.28768972  0.72943555     1.02700
Fe1879     Fe  0.67133459  0.26412933  0.78135272     1.65800
Fe1880     Fe  0.62054739  0.23869063  0.75644229     1.73200
Fe1881     Fe  0.66075637  0.20480466  0.79405774     1.54400
O1882       O  0.69640455  0.20809393  0.78136446    -0.81900
O1883       O  0.60174524  0.22446023  0.79118222    -0.80200
O1884       O  0.70085959  0.24579778  0.76729090    -0.84400
O1885       O  0.67797591  0.25748125  0.82572349    -0.79200
O1886       O  0.65525688  0.18616249  0.75515847    -0.81000
O1887       O  0.61211332  0.27231824  0.77303583    -0.83800
C1888       C  0.67294378  0.24069913  0.84349643     0.97000
C1889       C  0.70856145  0.22463621  0.76961384     1.04400
O1890       O  0.65095394  0.23584585  0.77724019    -1.12700
O1891       O  0.63689878  0.25259665  0.71982927    -0.75200
O1892       O  0.66686644  0.27434627  0.73726722    -0.78700
O1893       O  0.66644703  0.22025329  0.83470139    -0.79400
C1894       C  0.65408655  0.26677361  0.71602896     0.95900
O1895       O  0.64414636  0.28572319  0.79621905    -0.77300
O1896       O  0.62402213  0.20557913  0.73671664    -0.82500
C1897       C  0.60584751  0.20646560  0.80731010     0.98500
C1898       C  0.63835949  0.18804891  0.73689521     1.04400
O1899       O  0.62641635  0.19689340  0.80871160    -0.78200
C1900       C  0.62243218  0.28734255  0.78958836     1.02700
Fe1901     Fe  0.84243483  0.27301809  0.98296186     1.65800
Fe1902     Fe  0.89360205  0.29851449  0.51169770     1.73200
Fe1903     Fe  0.85349119  0.33189447  0.96908819     1.54400
O1904       O  0.84334028  0.31564258  0.92942576    -0.81900
O1905       O  0.88428235  0.32784969  0.53686254    -0.80200
O1906       O  0.84210979  0.27665936  0.93776927    -0.84400
O1907       O  0.81145599  0.29218551  0.98733851    -0.79200
O1908       O  0.88692464  0.33599168  0.95076633    -0.81000
O1909       O  0.87798261  0.27732384  0.54366478    -0.83800
C1910       C  0.80480929  0.31381886  0.98900393     0.97000
C1911       C  0.84127440  0.29423525  0.92028449     1.04400
O1912       O  0.86231890  0.30140668  0.98821721    -1.12700
O1913       O  0.90379894  0.26973341  0.98992010    -0.75200
O1914       O  0.87108208  0.25013047  0.97694253    -0.78700
O1915       O  0.81895343  0.33116368  0.98556158    -0.79400
C1916       C  0.89349044  0.25188453  0.97860433     0.95900
O1917       O  0.84236660  0.26649616  0.52725246    -0.77300
O1918       O  0.91103353  0.31991626  0.98423440    -0.82500
C1919       C  0.87663703  0.34826919  0.52942833     0.98500
C1920       C  0.90755768  0.33195554  0.96090311     1.04400
O1921       O  0.86670113  0.35229308  0.50472833    -0.78200
C1922       C  0.85790794  0.26761637  0.54744036     1.02700
Fe1923     Fe  0.67415585  0.27316973  0.52837620     1.65800
Fe1924     Fe  0.62637723  0.29953098  0.49911076     1.73200
Fe1925     Fe  0.66106977  0.33048381  0.54667010     1.54400
O1926       O  0.67204251  0.31206951  0.58472172    -0.81900
O1927       O  0.63512431  0.32882553  0.97706027    -0.80200
O1928       O  0.66924489  0.27362092  0.57315284    -0.84400
O1929       O  0.70485103  0.29277554  0.53147230    -0.79200
O1930       O  0.62761782  0.33186477  0.56519047    -0.81000
O1931       O  0.64036648  0.27806568  0.96934333    -0.83800
C1932       C  0.71014644  0.31437172  0.52662990     0.97000
C1933       C  0.67026118  0.29022583  0.59226045     1.04400
O1934       O  0.65388755  0.30117351  0.52473622    -1.12700
O1935       O  0.61314971  0.27066353  0.52128841    -0.75200
O1936       O  0.64617158  0.24917212  0.52589461    -0.78700
O1937       O  0.69519938  0.33135287  0.52908604    -0.79400
C1938       C  0.62368884  0.25121826  0.52709321     0.95900
O1939       O  0.67763757  0.27253105  0.98405350    -0.77300
O1940       O  0.60558004  0.32127909  0.52647499    -0.82500
C1941       C  0.63947290  0.34946512  0.98728687     0.98500
C1942       C  0.60773132  0.33057404  0.55214159     1.04400
O1943       O  0.64916848  0.35262123  0.51235054    -0.78200
C1944       C  0.66173374  0.27173999  0.96437222     1.02700
Fe1945     Fe  0.50888627  0.43017162  0.85989784     1.65800
Fe1946     Fe  0.53398859  0.38268169  0.89160357     1.73200
Fe1947     Fe  0.56721397  0.41964923  0.84898858     1.54400
O1948       O  0.55132330  0.43015538  0.80919508    -0.81900
O1949       O  0.56114648  0.39399154  0.91841566    -0.80200
O1950       O  0.51239191  0.42395997  0.81514995    -0.84400
O1951       O  0.52761722  0.46141575  0.85677772    -0.79200
O1952       O  0.57193427  0.38617307  0.83043862    -0.81000
O1953       O  0.51033116  0.39949657  0.92083738    -0.83800
C1954       C  0.54807174  0.46831930  0.86454864     0.97000
C1955       C  0.53063536  0.42654913  0.79881478     1.04400
O1956       O  0.53688543  0.41072064  0.86685474    -1.12700
O1957       O  0.50659069  0.36906547  0.86630030    -0.75200
O1958       O  0.48516916  0.40208859  0.86170859    -0.78700
O1959       O  0.56531537  0.45383022  0.86685749    -0.79400
C1960       C  0.48724235  0.37956979  0.86013092     0.95900
O1961       O  0.50489729  0.43672794  0.90476785    -0.77300
O1962       O  0.55769236  0.36265371  0.86601158    -0.82500
C1963       C  0.58181580  0.40082101  0.91117895     0.98500
C1964       C  0.56986524  0.36584851  0.84249852     1.04400
O1965       O  0.58672815  0.40928069  0.88574838    -0.78200
C1966       C  0.50389692  0.42110302  0.92501385     1.02700
Fe1967     Fe  0.50476894  0.60621036  0.90681044     1.65800
Fe1968     Fe  0.53204566  0.65523120  0.88181014     1.73200
Fe1969     Fe  0.56278918  0.61504939  0.92367980     1.54400
O1970       O  0.54470756  0.60433063  0.96223156    -0.81900
O1971       O  0.56029424  0.64454774  0.85617391    -0.80200
O1972       O  0.50623445  0.60703542  0.95179296    -0.84400
O1973       O  0.52258973  0.57417784  0.90474276    -0.79200
O1974       O  0.56782905  0.64773837  0.94415163    -0.81000
O1975       O  0.50974624  0.64173912  0.84919383    -0.83800
C1976       C  0.54378709  0.56750736  0.90006023     0.97000
C1977       C  0.52292782  0.60507233  0.97029758     1.04400
O1978       O  0.53336664  0.62553607  0.90421669    -1.12700
O1979       O  0.50363129  0.66805707  0.90608992    -0.75200
O1980       O  0.48189150  0.63526382  0.90914610    -0.78700
O1981       O  0.56132671  0.58119932  0.90441846    -0.79400
C1982       C  0.48417501  0.65769894  0.91164523     0.95900
O1983       O  0.50193873  0.60428232  0.86173009    -0.77300
O1984       O  0.55431304  0.67328605  0.91055082    -0.82500
C1985       C  0.58035484  0.63612684  0.86352079     0.98500
C1986       C  0.56562801  0.66878833  0.93418515     1.04400
O1987       O  0.58416092  0.62587811  0.88824019    -0.78200
C1988       C  0.50219622  0.62099232  0.84305469     1.02700
Fe1989     Fe  0.50366160  0.43008762  0.60987023     1.65800
Fe1990     Fe  0.47888719  0.37941566  0.63606199     1.73200
Fe1991     Fe  0.44435811  0.42002430  0.59948670     1.54400
O1992       O  0.44670011  0.45436139  0.61630949    -0.81900
O1993       O  0.45776987  0.36066760  0.60693930    -0.80200
O1994       O  0.48537515  0.46156834  0.61436693    -0.84400
O1995       O  0.49878349  0.43041410  0.56441287    -0.79200
O1996       O  0.42596912  0.41074946  0.63754521    -0.81000
O1997       O  0.50780919  0.36835847  0.61103250    -0.83800
C1998       C  0.48022136  0.43087265  0.54839235     0.97000
C1999       C  0.46412603  0.46844692  0.61777085     1.04400
O2000       O  0.47549937  0.40984180  0.61514348    -1.12700
O2001       O  0.50021803  0.39416886  0.66837344    -0.75200
O2002       O  0.51013465  0.43098594  0.65517846    -0.78700
O2003       O  0.45930293  0.42967641  0.55912824    -0.79400
C2004       C  0.50906891  0.41444620  0.67434705     0.95900
O2005       O  0.52723783  0.40215588  0.60407689    -0.77300
O2006       O  0.45024499  0.38694756  0.66316131    -0.82500
C2007       C  0.44297923  0.36577565  0.58681819     0.98500
C2008       C  0.43075053  0.39811892  0.66006056     1.04400
O2009       O  0.43728233  0.38712717  0.58080674    -0.55800
C2010       C  0.52617255  0.37961994  0.60305007     1.02700
Fe2011     Fe  0.50136535  0.60497761  0.66060077     1.65800
Fe2012     Fe  0.47681183  0.65554544  0.63417264     1.73200
Fe2013     Fe  0.44220478  0.61603376  0.67049285     1.54400
O2014       O  0.44654097  0.57989042  0.66058952    -0.81900
O2015       O  0.46360527  0.67430168  0.66980392    -0.80200
O2016       O  0.48404143  0.57555459  0.64568082    -0.84400
O2017       O  0.49276109  0.59836019  0.70454000    -0.79200
O2018       O  0.42561043  0.62023618  0.63012708    -0.81000
O2019       O  0.51082505  0.66296799  0.64905582    -0.83800
C2020       C  0.47586666  0.60489077  0.72164857     0.97000
C2021       C  0.46326830  0.56757915  0.64910278     1.04400
O2022       O  0.47345271  0.62534917  0.65500162    -1.12700
O2023       O  0.48958374  0.63781497  0.59773403    -0.75200
O2024       O  0.51310195  0.60962190  0.61702954    -0.78700
O2025       O  0.45602116  0.61228518  0.71213945    -0.79400
C2026       C  0.50454091  0.62091642  0.59506545     0.95900
O2027       O  0.52167743  0.63219632  0.67654774    -0.77300
O2028       O  0.44331197  0.65374332  0.61590718    -0.82500
C2029       C  0.44405807  0.67078479  0.68318442     0.98500
C2030       C  0.42648738  0.63885481  0.61435153     1.04400
O2031       O  0.43345572  0.65081753  0.68234837    -0.78200
C2032       C  0.52444345  0.65335995  0.66786942     1.02700
Fe2033     Fe  0.34218580  0.76866939  0.98922344     1.65800
Fe2034     Fe  0.39052631  0.74228103  0.51862585     1.73200
Fe2035     Fe  0.35156768  0.70993261  0.97609290     1.54400
O2036       O  0.31854880  0.71180089  0.99656104    -0.81900
O2037       O  0.40913596  0.72003154  0.98863059    -0.80200
O2038       O  0.31053321  0.75024819  0.98963408    -0.84400
O2039       O  0.34605072  0.76516463  0.94422312    -0.79200
O2040       O  0.36469091  0.68908888  0.50978539    -0.81000
O2041       O  0.40326406  0.77075525  0.99400897    -0.83800
C2042       C  0.34319555  0.74698525  0.92777697     0.97000
C2043       C  0.30436530  0.72949064  0.99755463     1.04400
O2044       O  0.36147440  0.74011536  0.99450050    -1.12700
O2045       O  0.37488223  0.76392652  0.55091828    -0.75200
O2046       O  0.33797336  0.77212077  0.53599020    -0.78700
O2047       O  0.33895161  0.72636564  0.93796850    -0.79400
C2048       C  0.35390208  0.77163460  0.55573823     0.95900
O2049       O  0.37044309  0.79203239  0.98814167    -0.77300
O2050       O  0.38078595  0.71334859  0.54338878    -0.82500
C2051       C  0.40492021  0.70885467  0.96459095     0.98500
C2052       C  0.37440810  0.69281312  0.53477311     1.04400
O2053       O  0.38396601  0.70583292  0.95489721    -0.78200
C2054       C  0.39285312  0.79007276  0.98730531     1.02700
Fe2055     Fe  0.16477518  0.76407940  0.53516233     1.65800
Fe2056     Fe  0.11659633  0.73694626  0.50515396     1.73200
Fe2057     Fe  0.15682649  0.70390514  0.54453425     1.54400
O2058       O  0.19276767  0.70911635  0.53547291    -0.81900
O2059       O  0.09719742  0.72012303  0.53763079    -0.80200
O2060       O  0.19627097  0.74770937  0.52553370    -0.84400
O2061       O  0.16823822  0.75704479  0.57993962    -0.79200
O2062       O  0.15388896  0.68587984  0.50450679    -0.81000
O2063       O  0.10495561  0.76941520  0.52301035    -0.83800
C2064       C  0.16425002  0.73924590  0.59653772     0.97000
C2065       C  0.20510826  0.72703936  0.52815685     1.04400
O2066       O  0.14617627  0.73493840  0.52815741    -1.12700
O2067       O  0.13364719  0.75308993  0.97136458    -0.75200
O2068       O  0.16256357  0.77491477  0.99141825    -0.78700
O2069       O  0.15969838  0.71853733  0.58654753    -0.79400
C2070       C  0.15071136  0.76763909  0.96919530     0.95900
O2071       O  0.13587352  0.78454008  0.54667786    -0.77300
O2072       O  0.12252141  0.70479410  0.98467852    -0.82500
C2073       C  0.10180619  0.70196585  0.55337021     0.98500
C2074       C  0.13770493  0.68797469  0.98462819     1.04400
O2075       O  0.12274176  0.69377444  0.55595814    -0.78200
C2076       C  0.11416851  0.78499609  0.53983684     1.02700
Fe2077     Fe  0.34190976  0.77247132  0.73989583     1.65800
Fe2078     Fe  0.39227247  0.79802180  0.76552818     1.73200
Fe2079     Fe  0.35209386  0.83226662  0.72810109     1.54400
O2080       O  0.34287396  0.81673966  0.68804190    -0.81900
O2081       O  0.38466939  0.82665031  0.79204033    -0.80200
O2082       O  0.34009343  0.77731628  0.69481106    -0.84400
O2083       O  0.31076199  0.79072099  0.74708877    -0.79200
O2084       O  0.38520794  0.83937253  0.70925649    -0.81000
O2085       O  0.37801820  0.77665500  0.79810512    -0.83800
C2086       C  0.30388783  0.81216382  0.74968476     0.97000
C2087       C  0.34046477  0.79555288  0.67824287     1.04400
O2088       O  0.36202397  0.80105266  0.74450626    -1.12700
O2089       O  0.40329954  0.76933456  0.74077762    -0.75200
O2090       O  0.37004566  0.74927696  0.73244926    -0.78700
O2091       O  0.31746267  0.82973304  0.74461818    -0.79400
C2092       C  0.39245833  0.75106060  0.73170037     0.95900
O2093       O  0.34195137  0.76537450  0.78463572    -0.77300
O2094       O  0.41089121  0.81915605  0.73652850    -0.82500
C2095       C  0.37396947  0.84638569  0.78872225     0.98500
C2096       C  0.40641764  0.83377507  0.71598565     1.04400
O2097       O  0.36138617  0.85127626  0.76615648    -0.78200
C2098       C  0.35817404  0.76704286  0.80386900     1.02700
Fe2099     Fe  0.16573779  0.77214386  0.78228978     1.65800
Fe2100     Fe  0.11699694  0.79891997  0.75575438     1.73200
Fe2101     Fe  0.15560894  0.83079247  0.79831796     1.54400
O2102       O  0.16533964  0.81305842  0.83749388    -0.81900
O2103       O  0.12685822  0.82742539  0.73039618    -0.80200
O2104       O  0.16300434  0.77421124  0.82724120    -0.84400
O2105       O  0.19737280  0.79026655  0.78283109    -0.79200
O2106       O  0.12252127  0.83622854  0.81722349    -0.81000
O2107       O  0.13217395  0.77645690  0.72378715    -0.83800
C2108       C  0.20432822  0.81158003  0.78007023     0.97000
C2109       C  0.16463239  0.79126547  0.84569433     1.04400
O2110       O  0.14616408  0.80088995  0.77871116    -1.12700
O2111       O  0.10464178  0.77072380  0.78012796    -0.75200
O2112       O  0.13730818  0.74855797  0.78275482    -0.78700
O2113       O  0.19006570  0.82919720  0.78122935    -0.79400
C2114       C  0.11505437  0.75127933  0.78598468     0.95900
O2115       O  0.16945526  0.76888578  0.73721792    -0.77300
O2116       O  0.09766189  0.82096573  0.78395681    -0.82500
C2117       C  0.13524813  0.84764027  0.73748491     0.98500
C2118       C  0.10176618  0.83324205  0.80709252     1.04400
O2119       O  0.14554435  0.85175481  0.76213785    -0.78200
C2120       C  0.15305648  0.76880558  0.71812771     1.02700
Fe2121     Fe  0.01214436  0.43172163  0.90707932     1.65800
Fe2122     Fe  0.03820877  0.37992371  0.88347136     1.73200
Fe2123     Fe  0.07077309  0.42015192  0.92352304     1.54400
O2124       O  0.06907673  0.45497473  0.90880914    -0.81900
O2125       O  0.05600941  0.36093665  0.91531124    -0.80200
O2126       O  0.03096690  0.46234151  0.89965839    -0.84400
O2127       O  0.01556024  0.43520278  0.95257499    -0.79200
O2128       O  0.09090036  0.41231719  0.88663164    -0.81000
O2129       O  0.00699038  0.37003834  0.90396204    -0.83800
C2130       C  0.03267538  0.43302231  0.97066799     0.97000
C2131       C  0.05242192  0.46872272  0.90088240     1.04400
O2132       O  0.04043039  0.41063663  0.90467600    -1.12700
O2133       O  0.02030577  0.39458233  0.84836478    -0.75200
O2134       O  0.00601696  0.43014953  0.86173275    -0.78700
O2135       O  0.05385143  0.42848077  0.96263554    -0.79400
C2136       C  0.00992728  0.41405050  0.84229226     0.95900
O2137       O  0.98878127  0.40424656  0.91485644    -0.77300
O2138       O  0.06925559  0.38621588  0.86072298    -0.82500
C2139       C  0.07106229  0.36551041  0.93530109     0.98500
C2140       C  0.08781498  0.39854683  0.86465215     1.04400
O2141       O  0.07764950  0.38666349  0.94086864    -0.78200
C2142       C  0.98912705  0.38165923  0.91351495     1.02700
Fe2143     Fe  0.01098237  0.60258685  0.85898591     1.65800
Fe2144     Fe  0.03513819  0.65332461  0.88692362     1.73200
Fe2145     Fe  0.06948097  0.61527791  0.84569313     1.54400
O2146       O  0.06714680  0.57908327  0.85508201    -0.81900
O2147       O  0.04796382  0.67369997  0.85242680    -0.80200
O2148       O  0.03012378  0.57309707  0.87081393    -0.84400
O2149       O  0.01761528  0.59745027  0.81385010    -0.79200
O2150       O  0.08817419  0.61962559  0.88457100    -0.81000
O2151       O  0.00091596  0.66110171  0.87255664    -0.83800
C2152       C  0.03406750  0.60376926  0.79613788     0.97000
C2153       C  0.05124673  0.56608144  0.86659285     1.04400
O2154       O  0.03853493  0.62365457  0.86394638    -1.12700
O2155       O  0.02243068  0.63493380  0.92326809    -0.75200
O2156       O  0.00093081  0.60550892  0.90337541    -0.78700
O2157       O  0.05404955  0.61120871  0.80491052    -0.79400
C2158       C  0.00820223  0.61750720  0.92555480     0.95900
O2159       O  0.98836440  0.62967303  0.84706902    -0.77300
O2160       O  0.06893023  0.65080774  0.90438707    -0.82500
C2161       C  0.06615301  0.67035903  0.83604314     0.98500
C2162       C  0.08682416  0.63698076  0.90266030     1.04400
O2163       O  0.07645678  0.65018773  0.83390829    -0.78200
C2164       C  0.98568355  0.65091511  0.85620485     1.02700
Fe2165     Fe  0.00068518  0.43383030  0.65666852     1.65800
Fe2166     Fe  0.97639354  0.38500960  0.62656590     1.73200
Fe2167     Fe  0.94370442  0.41967006  0.67311378     1.54400
O2168       O  0.96082054  0.43080801  0.71192369    -0.81900
O2169       O  0.94794885  0.39618567  0.60199102    -0.80200
O2170       O  0.99953251  0.42924743  0.70147396    -0.84400
O2171       O  0.98012453  0.46462989  0.65897286    -0.79200
O2172       O  0.94253525  0.38599989  0.69123099    -0.81000
O2173       O  0.99861187  0.40161509  0.59636973    -0.83800
C2174       C  0.95841362  0.46925826  0.65403045     0.97000
C2175       C  0.98245466  0.42947828  0.71992429     1.04400
O2176       O  0.97349419  0.41286273  0.65216227    -1.12700
O2177       O  0.00486013  0.37241355  0.65018134    -0.75200
O2178       O  0.02543592  0.40591833  0.65514773    -0.78700
O2179       O  0.94225540  0.45368265  0.65576760    -0.79400
C2180       C  0.02375921  0.38331418  0.65694766     0.95900
O2181       O  0.00316427  0.43915445  0.61170460    -0.77300
O2182       O  0.95441518  0.36411591  0.65252314    -0.82500
C2183       C  0.92714456  0.40103281  0.61130936     0.98500
C2184       C  0.94412643  0.36617913  0.67756045     1.04400
O2185       O  0.92288116  0.40828743  0.63766187    -0.78200
C2186       C  0.00449512  0.42311439  0.59185443     1.02700
Fe2187     Fe  0.99956767  0.60143119  0.61028429     1.65800
Fe2188     Fe  0.97496141  0.65208664  0.63798024     1.73200
Fe2189     Fe  0.94164182  0.61536263  0.59474871     1.54400
O2190       O  0.95832368  0.60486281  0.55538170    -0.81900
O2191       O  0.94632006  0.64308724  0.66355049    -0.80200
O2192       O  0.99692915  0.60167262  0.56482852    -0.84400
O2193       O  0.97954796  0.57088255  0.61425478    -0.79200
O2194       O  0.93833925  0.64893533  0.57614470    -0.81000
O2195       O  0.99669766  0.63666513  0.66964823    -0.83800
C2196       C  0.95768375  0.56590587  0.61646342     0.97000
C2197       C  0.97978524  0.60279317  0.54672268     1.04400
O2198       O  0.97195090  0.62285331  0.61437926    -1.12700
O2199       O  0.00362133  0.66315781  0.61370959    -0.75200
O2200       O  0.02355628  0.62922941  0.60596834    -0.78700
O2201       O  0.94124610  0.58087035  0.61128815    -0.79400
C2202       C  0.02188838  0.65184846  0.60486788     0.95900
O2203       O  0.00490810  0.59946361  0.65548117    -0.77300
O2204       O  0.95384750  0.67254046  0.61038843    -0.82500
C2205       C  0.92594822  0.63537206  0.65661444     0.98500
C2206       C  0.94219359  0.66961821  0.58665764     1.04400
O2207       O  0.92133477  0.62607689  0.63142702    -0.78200
C2208       C  0.00519075  0.61605978  0.67468891     1.02700
Fe2209     Fe  0.51470063  0.10699190  0.60440780     1.65800
Fe2210     Fe  0.54022763  0.15774473  0.63095575     1.73200
Fe2211     Fe  0.57389869  0.11739622  0.59152812     1.54400
O2212       O  0.57076625  0.08162078  0.60372077    -0.81900
O2213       O  0.55554262  0.17683149  0.59724120    -0.80200
O2214       O  0.53257239  0.07616030  0.61441000    -0.84400
O2215       O  0.52062673  0.10252678  0.55937012    -0.79200
O2216       O  0.59265328  0.12301900  0.63023926    -0.81000
O2217       O  0.50738758  0.16733117  0.61417042    -0.83800
C2218       C  0.53775546  0.10660944  0.54166959     0.97000
C2219       C  0.55371485  0.06859549  0.61232104     1.04400
O2220       O  0.54298530  0.12728201  0.60908670    -1.12700
O2221       O  0.52486104  0.14143017  0.66678372    -0.75200
O2222       O  0.50566807  0.10973359  0.64916919    -0.78700
O2223       O  0.55847702  0.11180613  0.55052861    -0.79400
C2224       C  0.51156662  0.12346005  0.67047703     0.95900
O2225       O  0.49264621  0.13478135  0.59305520    -0.77300
O2226       O  0.57268299  0.15338731  0.65099000    -0.82500
C2227       C  0.57287482  0.17247849  0.57995565     0.98500
C2228       C  0.59050868  0.13951652  0.64946387     1.04400
O2229       O  0.58181156  0.15165750  0.57724663    -0.78200
C2230       C  0.49159788  0.15678605  0.59922157     1.02700
Fe2231     Fe  0.50973195  0.93485926  0.65855442     1.65800
Fe2232     Fe  0.53485523  0.88348971  0.63280043     1.73200
Fe2233     Fe  0.56818492  0.92252310  0.67433204     1.54400
O2234       O  0.56748590  0.95744389  0.65880662    -0.81900
O2235       O  0.55301778  0.86349590  0.66373016    -0.80200
O2236       O  0.52913252  0.96543217  0.65279397    -0.84400
O2237       O  0.51291343  0.93557400  0.70387274    -0.79200
O2238       O  0.58860484  0.91333040  0.63759480    -0.81000
O2239       O  0.50387443  0.87347056  0.65380967    -0.83800
C2240       C  0.52996063  0.93375396  0.72206930     0.97000
C2241       C  0.55072752  0.97147746  0.65171369     1.04400
O2242       O  0.53771681  0.91361981  0.65517059    -1.12700
O2243       O  0.51660249  0.89944327  0.59835635    -0.75200
O2244       O  0.50454513  0.93555678  0.61340940    -0.78700
O2245       O  0.55152389  0.93158367  0.71402014    -0.79400
C2246       C  0.50728032  0.91972652  0.59347463     0.95900
O2247       O  0.48528302  0.90755814  0.66424862    -0.77300
O2248       O  0.56565074  0.88974719  0.60976772    -0.82500
C2249       C  0.56721014  0.86776125  0.68483210     0.98500
C2250       C  0.58501082  0.90044263  0.61480443     1.04400
O2251       O  0.57342117  0.88883131  0.69174920    -0.78200
C2252       C  0.48586693  0.88492757  0.66323011     1.02700
Fe2253     Fe  0.50236495  0.10499596  0.85532073     1.65800
Fe2254     Fe  0.47645729  0.15384998  0.88415306     1.73200
Fe2255     Fe  0.44492985  0.11707439  0.83955717     1.54400
O2256       O  0.46287814  0.10510117  0.80133862    -0.81900
O2257       O  0.44745078  0.14375312  0.90869289    -0.80200
O2258       O  0.50144407  0.11029245  0.81050554    -0.84400
O2259       O  0.48286645  0.07386095  0.85192227    -0.79200
O2260       O  0.44235198  0.15012398  0.81994002    -0.81000
O2261       O  0.49791819  0.13714452  0.91543019    -0.83800
C2262       C  0.46163239  0.06831520  0.85836832     0.97000
C2263       C  0.48418499  0.10843247  0.79272254     1.04400
O2264       O  0.47443485  0.12537072  0.85975351    -1.12700
O2265       O  0.50567109  0.16626957  0.86129458    -0.75200
O2266       O  0.52661356  0.13281579  0.85773318    -0.78700
O2267       O  0.44488313  0.08352860  0.85852909    -0.79400
C2268       C  0.52510375  0.15539711  0.85619327     0.95900
O2269       O  0.50436619  0.09959385  0.90048550    -0.77300
O2270       O  0.45498619  0.17393886  0.85612245    -0.82500
C2271       C  0.42695608  0.13784247  0.89984275     0.98500
C2272       C  0.44424073  0.17071116  0.83160074     1.04400
O2273       O  0.42319322  0.12906440  0.87420497    -0.78200
C2274       C  0.50481159  0.11581215  0.92028252     1.02700
Fe2275     Fe  0.50317813  0.93451870  0.90975267     1.65800
Fe2276     Fe  0.47842006  0.88241802  0.88736680     1.73200
Fe2277     Fe  0.44420543  0.92367206  0.92275961     1.54400
O2278       O  0.45922606  0.92942285  0.96343982    -0.81900
O2279       O  0.44480568  0.88390940  0.86949737    -0.80200
O2280       O  0.49648183  0.94119964  0.95456421    -0.84400
O2281       O  0.48464328  0.96380006  0.89588710    -0.79200
O2282       O  0.43604449  0.88931690  0.93715020    -0.81000
O2283       O  0.49157009  0.89788732  0.84988066    -0.83800
C2284       C  0.46352520  0.97137701  0.89795156     0.97000
C2285       C  0.47960899  0.93579469  0.97220553     1.04400
O2286       O  0.47532814  0.91367287  0.90655636    -1.12700
O2287       O  0.51215212  0.87533248  0.90223964    -0.75200
O2288       O  0.52581049  0.90801409  0.92360330    -0.78700
O2289       O  0.44715767  0.95937859  0.91017659    -0.79400
C2290       C  0.52785835  0.88616715  0.91696244     0.95900
O2291       O  0.51248163  0.92928102  0.86523521    -0.77300
O2292       O  0.46542839  0.86490536  0.92372904    -0.82500
C2293       C  0.42755275  0.89851357  0.86832247     0.98500
C2294       C  0.44624230  0.86894800  0.93771833     1.04400
O2295       O  0.42665471  0.91761069  0.88345717    -0.78200
C2296       C  0.50505339  0.91545115  0.84472257     1.02700
Fe2297     Fe  0.84391327  0.77057584  0.52870931     1.65800
Fe2298     Fe  0.89226677  0.80003841  0.50450088     1.73200
Fe2299     Fe  0.85169498  0.82909799  0.54897202     1.54400
O2300       O  0.81676296  0.82678681  0.53441952    -0.81900
O2301       O  0.91086017  0.82043748  0.53492709    -0.80200
O2302       O  0.81170441  0.78782365  0.52870916    -0.84400
O2303       O  0.84478646  0.77098896  0.57392662    -0.79200
O2304       O  0.85897513  0.85155259  0.51342846    -0.81000
O2305       O  0.90526977  0.77011757  0.52577150    -0.83800
C2306       C  0.84457871  0.78732513  0.59351938     0.97000
C2307       C  0.80355434  0.80888551  0.53004293     1.04400
O2308       O  0.86255293  0.80014156  0.52732667    -1.12700
O2309       O  0.88001909  0.77740087  0.97033544    -0.75200
O2310       O  0.84300914  0.76798268  0.98321161    -0.78700
O2311       O  0.84448490  0.80948611  0.58714908    -0.79400
C2312       C  0.85945852  0.76957583  0.96402191     0.95900
O2313       O  0.87302170  0.74772206  0.52932248    -0.77300
O2314       O  0.88416229  0.82780328  0.98112792    -0.82500
C2315       C  0.90591157  0.83317725  0.55755023     0.98500
C2316       C  0.87355085  0.84701967  0.98854592     1.04400
O2317       O  0.88474393  0.83618815  0.56660490    -0.78200
C2318       C  0.89526667  0.75046892  0.53148371     1.02700
Fe2319     Fe  0.66798858  0.76906047  0.99396542     1.65800
Fe2320     Fe  0.61563379  0.79757324  0.51594287     1.73200
Fe2321     Fe  0.66068020  0.82818133  0.97619241     1.54400
O2322       O  0.69568842  0.82339197  0.98838858    -0.81900
O2323       O  0.60099107  0.81224963  0.97591707    -0.80200
O2324       O  0.69867896  0.78634232  0.00484614    -0.84400
O2325       O  0.67392209  0.77225478  0.94907233    -0.79200
O2326       O  0.64657635  0.84976836  0.50993373    -0.81000
O2327       O  0.60741639  0.76504681  0.99714798    -0.83800
C2328       C  0.67051610  0.78864908  0.93017256     0.97000
C2329       C  0.70740784  0.80670019  0.00022518     1.04400
O2330       O  0.64867768  0.79848581  0.99442107    -1.12700
O2331       O  0.62846501  0.77736664  0.55046249    -0.75200
O2332       O  0.66569766  0.76692803  0.53983732    -0.78700
O2333       O  0.66598198  0.81028603  0.93676366    -0.79400
C2334       C  0.64868663  0.76956700  0.55811216     0.95900
O2335       O  0.64052346  0.74655721  0.98323418    -0.77300
O2336       O  0.62418171  0.82749983  0.54010078    -0.82500
C2337       C  0.60665927  0.83061295  0.96138554     0.98500
C2338       C  0.63462672  0.84681473  0.53361352     1.04400
O2339       O  0.62760311  0.83883250  0.96119016    -0.78200
C2340       C  0.61820229  0.74716431  0.98615797     1.02700
Fe2341     Fe  0.83863077  0.76120806  0.78146793     1.65800
Fe2342     Fe  0.89066134  0.73587039  0.75915757     1.73200
Fe2343     Fe  0.84992728  0.70224246  0.79634889     1.54400
O2344       O  0.84489839  0.71862530  0.83693557    -0.81900
O2345       O  0.88709275  0.70287744  0.73909601    -0.80200
O2346       O  0.83361186  0.75604001  0.82616420    -0.84400
O2347       O  0.80930009  0.74262113  0.76998554    -0.79200
O2348       O  0.88412152  0.69328447  0.81008435    -0.81000
O2349       O  0.87545336  0.75068068  0.72220806    -0.83800
C2350       C  0.80168960  0.72174707  0.77350272     0.97000
C2351       C  0.83925506  0.73981099  0.84441745     1.04400
O2352       O  0.85967354  0.73308182  0.77886394    -1.12700
O2353       O  0.89877557  0.76907618  0.77702107    -0.75200
O2354       O  0.86481623  0.78432364  0.79315353    -0.78700
O2355       O  0.81409620  0.70538075  0.78518382    -0.79400
C2356       C  0.88701027  0.78552888  0.78994688     0.95900
O2357       O  0.84221163  0.76912289  0.73704112    -0.77300
O2358       O  0.90889640  0.72101378  0.79387549    -0.82500
C2359       C  0.87276381  0.68544272  0.73918798     0.98500
C2360       C  0.90466995  0.70256246  0.80903921     1.04400
O2361       O  0.85539270  0.68376008  0.75710235    -0.78200
C2362       C  0.85697578  0.76301733  0.71698326     1.02700
Fe2363     Fe  0.66605689  0.76522932  0.74426915     1.65800
Fe2364     Fe  0.61675254  0.73983498  0.76918712     1.73200
Fe2365     Fe  0.65477599  0.70794481  0.72633842     1.54400
O2366       O  0.66763786  0.72616452  0.68937270    -0.81900
O2367       O  0.62695289  0.71148596  0.79495681    -0.80200
O2368       O  0.66247679  0.76495310  0.69946633    -0.84400
O2369       O  0.69717080  0.74556397  0.74146423    -0.79200
O2370       O  0.62261802  0.70588210  0.70491198    -0.81000
O2371       O  0.63132939  0.76258410  0.80046293    -0.83800
C2372       C  0.70277281  0.72400590  0.74648058     0.97000
C2373       C  0.66470664  0.74773115  0.68124366     1.04400
O2374       O  0.64587840  0.73743712  0.74656571    -1.12700
O2375       O  0.60516157  0.76812065  0.74382995    -0.75200
O2376       O  0.63796613  0.78953193  0.74601928    -0.78700
O2377       O  0.68765466  0.70736492  0.74646289    -0.79400
C2378       C  0.61602675  0.78766242  0.74005272     0.95900
O2379       O  0.66964548  0.76564076  0.78946893    -0.77300
O2380       O  0.59836071  0.71700425  0.74169886    -0.82500
C2381       C  0.63312199  0.69074782  0.78618006     0.98500
C2382       C  0.60223415  0.70675110  0.71693616     1.04400
O2383       O  0.64188040  0.68660096  0.76050809    -0.78200
C2384       C  0.65269720  0.76613046  0.80811070     1.02700
Fe2385     Fe  0.34133508  0.27382694  0.78387360     1.65800
Fe2386     Fe  0.38994915  0.29962471  0.75511116     1.73200
Fe2387     Fe  0.35343492  0.33171069  0.79999694     1.54400
O2388       O  0.31996029  0.33237255  0.78121189    -0.81900
O2389       O  0.40981537  0.32141689  0.78302253    -0.80200
O2390       O  0.31038421  0.29396865  0.78528549    -0.84400
O2391       O  0.34417918  0.27533797  0.82914081    -0.79200
O2392       O  0.36607602  0.35314033  0.76583973    -0.81000
O2393       O  0.40254111  0.27103071  0.77867510    -0.83800
C2394       C  0.34165209  0.29298105  0.84666966     0.97000
C2395       C  0.30481293  0.31568299  0.78097885     1.04400
O2396       O  0.36155096  0.30177538  0.77966778    -1.12700
O2397       O  0.37424116  0.27744002  0.72364128    -0.75200
O2398       O  0.33711010  0.27073389  0.73862268    -0.78700
O2399       O  0.34097950  0.31448390  0.83775419    -0.79400
C2400       C  0.35320079  0.27031940  0.71884580     0.95900
O2401       O  0.36965316  0.24951005  0.78351199    -0.77300
O2402       O  0.37921547  0.32837374  0.73037624    -0.82500
C2403       C  0.40666193  0.33114034  0.80835395     0.98500
C2404       C  0.37444131  0.34917576  0.73999961     1.04400
O2405       O  0.38618799  0.33331694  0.82007029    -0.78200
C2406       C  0.39205756  0.25185188  0.78533448     1.02700
Fe2407     Fe  0.17101516  0.27598971  0.73684146     1.65800
Fe2408     Fe  0.11922618  0.30227110  0.75903170     1.73200
Fe2409     Fe  0.16005739  0.33492012  0.72054553     1.54400
O2410       O  0.19540385  0.33214824  0.73335553    -0.81900
O2411       O  0.10092752  0.31763596  0.72473099    -0.80200
O2412       O  0.20046730  0.29483349  0.74842766    -0.84400
O2413       O  0.17668726  0.28049021  0.69176361    -0.79200
O2414       O  0.15391590  0.35451939  0.75849122    -0.81000
O2415       O  0.11053744  0.26960009  0.74094337    -0.83800
C2416       C  0.17219054  0.29695756  0.67328561     0.97000
C2417       C  0.20783527  0.31590083  0.74520706     1.04400
O2418       O  0.15013723  0.30440711  0.73888106    -1.12700
O2419       O  0.13398645  0.28679672  0.79593535    -0.75200
O2420       O  0.16726541  0.26846325  0.78161655    -0.78700
O2421       O  0.16620044  0.31797293  0.68092824    -0.79400
C2422       C  0.15235825  0.27449052  0.80161608     0.95900
O2423       O  0.14428557  0.25293538  0.72546113    -0.77300
O2424       O  0.12367537  0.33489220  0.77927008    -0.82500
C2425       C  0.10548350  0.33484276  0.70755660     0.98500
C2426       C  0.13760747  0.35256270  0.77774564     1.04400
O2427       O  0.12628828  0.34323671  0.70511386    -0.78200
C2428       C  0.12196777  0.25263390  0.72872904     1.02700
Fe2429     Fe  0.34102036  0.26324404  0.53402020     1.65800
Fe2430     Fe  0.39033697  0.23911986  0.50250533     1.73200
Fe2431     Fe  0.35504394  0.20481368  0.54672362     1.54400
O2432       O  0.34531462  0.22093792  0.58680650    -0.81900
O2433       O  0.38164773  0.21006113  0.97635657    -0.80200
O2434       O  0.34333433  0.26023895  0.57940686    -0.84400
O2435       O  0.31057467  0.24328019  0.53331206    -0.79200
O2436       O  0.38924782  0.20120222  0.56352396    -0.81000
O2437       O  0.37405086  0.26079952  0.97258000    -0.83800
C2438       C  0.30483737  0.22158516  0.53029691     0.97000
C2439       C  0.34371974  0.24228982  0.59648480     1.04400
O2440       O  0.36215305  0.23561496  0.52780956    -1.12700
O2441       O  0.40203119  0.26855631  0.52571539    -0.75200
O2442       O  0.36838025  0.28778244  0.53592690    -0.78700
O2443       O  0.31998881  0.20469965  0.53150503    -0.79400
C2444       C  0.39089100  0.28696176  0.53481813     0.95900
O2445       O  0.33701787  0.26729529  0.98868126    -0.77300
O2446       O  0.41165699  0.21815479  0.52879422    -0.82500
C2447       C  0.37444239  0.18935529  0.98305806     0.98500
C2448       C  0.40935415  0.20529563  0.55165232     1.04400
O2449       O  0.36498347  0.18473551  0.50968284    -0.78200
C2450       C  0.35288683  0.26797355  0.96864548     1.02700
Fe2451     Fe  0.17130004  0.26306870  0.98781737     1.65800
Fe2452     Fe  0.12196946  0.23768149  0.51481979     1.73200
Fe2453     Fe  0.15996891  0.20533473  0.96843256     1.54400
O2454       O  0.17048633  0.22391782  0.93047075    -0.81900
O2455       O  0.13180268  0.20805495  0.53829178    -0.80200
O2456       O  0.16850584  0.26252926  0.94266469    -0.84400
O2457       O  0.20258219  0.24380538  0.98747880    -0.79200
O2458       O  0.12676612  0.20262569  0.94945197    -0.81000
O2459       O  0.13703163  0.25875114  0.54768708    -0.83800
C2460       C  0.20827824  0.22205231  0.99066234     0.97000
C2461       C  0.16913579  0.24588053  0.92348513     1.04400
O2462       O  0.15142878  0.23464548  0.99036674    -1.12700
O2463       O  0.11010752  0.26515123  0.99217292    -0.75200
O2464       O  0.14282577  0.28697110  0.98822395    -0.78700
O2465       O  0.19395614  0.20505256  0.98597677    -0.79400
C2466       C  0.12049495  0.28450757  0.98597618     0.95900
O2467       O  0.17427940  0.26631217  0.53401327    -0.77300
O2468       O  0.10320883  0.21471913  0.98634705    -0.82500
C2469       C  0.13833833  0.18769187  0.52870989     0.98500
C2470       C  0.10632360  0.20469133  0.96127527     1.04400
O2471       O  0.14755320  0.18436881  0.50314116    -0.78200
C2472       C  0.15779296  0.26629011  0.55314887     1.02700
Fe2473     Fe  0.00331422  0.10444174  0.90906495     1.65800
Fe2474     Fe  0.97890370  0.15362995  0.87941654     1.73200
Fe2475     Fe  0.94584817  0.11879567  0.92429989     1.54400
O2476       O  0.94468932  0.08469021  0.90646352    -0.81900
O2477       O  0.95653518  0.17442295  0.90547498    -0.80200
O2478       O  0.98280475  0.07398686  0.90956111    -0.84400
O2479       O  0.00112114  0.10755978  0.95446862    -0.79200
O2480       O  0.92533610  0.13092498  0.88895062    -0.81000
O2481       O  0.00716506  0.16597291  0.90380506    -0.83800
C2482       C  0.98349312  0.10632202  0.97209033     0.97000
C2483       C  0.96106964  0.06903390  0.90556617     1.04400
O2484       O  0.97595587  0.12553791  0.90424483    -1.12700
O2485       O  0.00158967  0.13721966  0.84920712    -0.75200
O2486       O  0.00751543  0.09982122  0.86371579    -0.78700
O2487       O  0.96218030  0.10670223  0.96287207    -0.79400
C2488       C  0.00884877  0.11606123  0.84429276     0.95900
O2489       O  0.02768719  0.13224724  0.90961075    -0.77300
O2490       O  0.95062613  0.14302422  0.85393061    -0.82500
C2491       C  0.94631305  0.17225468  0.93047128     0.98500
C2492       C  0.92971565  0.13853105  0.86292753     1.04400
O2493       O  0.94457157  0.15233389  0.94351911    -0.78200
C2494       C  0.02604118  0.15489376  0.91073703     1.02700
Fe2495     Fe  0.99638235  0.93133751  0.86428687     1.65800
Fe2496     Fe  0.96939213  0.88027646  0.88546266     1.73200
Fe2497     Fe  0.93736379  0.92277586  0.85011734     1.54400
O2498       O  0.94196202  0.95865574  0.86140565    -0.81900
O2499       O  0.95617085  0.86341484  0.84882790    -0.80200
O2500       O  0.97883553  0.96137327  0.87799848    -0.84400
O2501       O  0.99071279  0.93814164  0.81928959    -0.79200
O2502       O  0.91934328  0.91856722  0.88969839    -0.81000
O2503       O  0.00300995  0.87131753  0.87018896    -0.83800
C2504       C  0.97413499  0.93310257  0.80110469     0.97000
C2505       C  0.95837293  0.97009355  0.87427927     1.04400
O2506       O  0.96779671  0.91159935  0.86671039    -1.12700
O2507       O  0.98284705  0.89485655  0.92331172    -0.75200
O2508       O  0.00451544  0.92590033  0.90894415    -0.78700
O2509       O  0.95343956  0.92702722  0.80943640    -0.79400
C2510       C  0.99669910  0.91198694  0.92903227     0.95900
O2511       O  0.01827682  0.90398645  0.85071658    -0.77300
O2512       O  0.93573120  0.88410190  0.90374360    -0.82500
C2513       C  0.93678180  0.86794403  0.83600620     0.98500
C2514       C  0.91951144  0.89993138  0.90549478     1.04400
O2515       O  0.92707742  0.88852501  0.83688466    -0.78200
C2516       C  0.01932601  0.88190662  0.85614403     1.02700
Fe2517     Fe  0.01348026  0.10606834  0.66096591     1.65800
Fe2518     Fe  0.03871246  0.15446151  0.62953020     1.73200
Fe2519     Fe  0.07273377  0.11651622  0.67030198     1.54400
O2520       O  0.05838452  0.11398329  0.71232213    -0.81900
O2521       O  0.07149849  0.14998604  0.61007375    -0.80200
O2522       O  0.02165750  0.10061708  0.70533123    -0.84400
O2523       O  0.03078155  0.07572848  0.64762782    -0.79200
O2524       O  0.08119065  0.15169425  0.68054553    -0.81000
O2525       O  0.02479927  0.13525537  0.59503435    -0.83800
C2526       C  0.05167329  0.06769718  0.65071594     0.97000
C2527       C  0.03853783  0.10689177  0.72221436     1.04400
O2528       O  0.04171060  0.12560985  0.65359328    -1.12700
O2529       O  0.00524181  0.16394419  0.64527977    -0.75200
O2530       O  0.99368323  0.13479373  0.67520539    -0.78700
O2531       O  0.06843135  0.08004524  0.66164186    -0.79400
C2532       C  0.99139007  0.15558791  0.66483636     0.95900
O2533       O  0.00129522  0.10883063  0.61733544    -0.77300
O2534       O  0.05321910  0.17551810  0.66216384    -0.82500
C2535       C  0.08885992  0.13555844  0.61104856     0.98500
C2536       C  0.07167931  0.17224552  0.67768438     1.04400
O2537       O  0.09054653  0.11915352  0.63018217    -0.78200
C2538       C  0.00937698  0.11890924  0.59418654     1.02700
Fe2539     Fe  0.00763184  0.93359540  0.61430381     1.65800
Fe2540     Fe  0.03268948  0.88466971  0.64276271     1.73200
Fe2541     Fe  0.06479029  0.91967711  0.59701379     1.54400
O2542       O  0.04733831  0.93121768  0.55876478    -0.81900
O2543       O  0.06125110  0.89532674  0.66757568    -0.80200
O2544       O  0.00872503  0.92890756  0.56941851    -0.84400
O2545       O  0.02783643  0.96421637  0.61208714    -0.79200
O2546       O  0.06592013  0.88613204  0.57757200    -0.81000
O2547       O  0.01056580  0.90128049  0.67371221    -0.83800
C2548       C  0.04952740  0.96941125  0.61589648     0.97000
C2549       C  0.02574898  0.92923087  0.55089589     1.04400
O2550       O  0.03521165  0.91278068  0.61815274    -1.12700
O2551       O  0.00430474  0.87240510  0.61860405    -0.75200
O2552       O  0.98309466  0.90574975  0.61517578    -0.78700
O2553       O  0.06601587  0.95386982  0.61491225    -0.79400
C2554       C  0.98531732  0.88326526  0.61174970     0.95900
O2555       O  0.00525018  0.93891069  0.65960157    -0.77300
O2556       O  0.05455270  0.86391251  0.61577652    -0.82500
C2557       C  0.08193628  0.90035112  0.65826132     0.98500
C2558       C  0.06409892  0.86610862  0.59032955     1.04400
O2559       O  0.08598550  0.90777539  0.63202514    -0.78200
C2560       C  0.00428615  0.92271957  0.67908285     1.02700
C2561       C  0.05603046  0.04301380  0.64009005    -0.00400
C2562       C  0.04587136  0.03647191  0.61288233    -0.12200
C2563       C  0.04531368  0.01269100  0.60363195     0.01900
C2564       C  0.05504968  0.99474969  0.62174635    -0.00500
C2565       C  0.06688007  0.00134806  0.64793175    -0.12200
C2566       C  0.06736911  0.02536242  0.65730274     0.01800
H2567       H  0.03745594  0.04996359  0.59926518     0.14700
H2568       H  0.07428368  0.98761253  0.66204779     0.14700
C2569       C  0.07768825  0.03108610  0.68570848     0.36400
C2570       C  0.03404238  0.00705377  0.57573730     0.36300
N2571       N  0.08589779  0.03565241  0.70852948    -0.44000
N2572       N  0.02503348  0.00254777  0.55338478    -0.44000
C2573       C  0.00371621  0.91586100  0.96053011    -0.00400
C2574       C  0.02280167  0.93111422  0.96713407    -0.12200
C2575       C  0.02973538  0.93542449  0.99656924     0.01900
C2576       C  0.01976251  0.92512207  0.51932443    -0.00500
C2577       C  0.00138138  0.90904196  0.51352488    -0.12200
C2578       C  0.99151186  0.90482531  0.98440825     0.01800
H2579       H  0.03241038  0.93970866  0.94928194     0.14700
H2580       H  0.99238713  0.90035485  0.53185475     0.14700
C2581       C  0.97187395  0.88864080  0.98033138     0.36400
C2582       C  0.04921182  0.95145840  0.00196544     0.36300
N2583       N  0.95624330  0.87553695  0.97739364    -0.44000
N2584       N  0.06483312  0.96431293  0.00629149    -0.44000
C2585       C  0.99481276  0.92820006  0.70899099    -0.00400
C2586       C  0.97781924  0.91272753  0.72062372    -0.12200
C2587       C  0.96995608  0.91491392  0.74992766     0.01900
C2588       C  0.97958162  0.93270451  0.76876739    -0.00500
C2589       C  0.99619335  0.94872863  0.75681850    -0.12200
C2590       C  0.00356955  0.94684462  0.72699621     0.01800
H2591       H  0.97094318  0.89845725  0.70678237     0.14700
H2592       H  0.00369111  0.96248575  0.77089770     0.14700
C2593       C  0.02095851  0.96341145  0.71587943     0.36400
C2594       C  0.95290178  0.89763852  0.76009997     0.36300
N2595       N  0.03484533  0.97675171  0.70697407    -0.44000
N2596       N  0.93905759  0.88372884  0.76757866    -0.44000
C2597       C  0.98877106  0.10561287  0.50426919    -0.00400
C2598       C  0.01137792  0.09871394  0.51431169    -0.12200
C2599       C  0.01762711  0.10122357  0.54415437     0.01900
C2600       C  0.00131468  0.11115493  0.56461779    -0.00500
C2601       C  0.97815463  0.11632193  0.55540361    -0.12200
C2602       C  0.97164768  0.11341542  0.52553043     0.01800
H2603       H  0.02422468  0.09214004  0.99756513     0.14700
H2604       H  0.96549818  0.12373137  0.57123759     0.14700
C2605       C  0.94773800  0.11989935  0.51729606     0.36400
C2606       C  0.04095667  0.09354535  0.55340965     0.36300
N2607       N  0.92856079  0.12510588  0.51076032    -0.44000
N2608       N  0.05949742  0.08713620  0.56103825    -0.44000
C2609       C  0.01934686  0.11096068  0.81470796    -0.00400
C2610       C  0.03378118  0.12850267  0.80199986    -0.12200
C2611       C  0.04126211  0.12684911  0.77243741     0.01900
C2612       C  0.03424986  0.10722038  0.75473416    -0.00500
C2613       C  0.02069373  0.08905798  0.76782202    -0.12200
C2614       C  0.01338709  0.09066167  0.79765447     0.01800
H2615       H  0.03851396  0.14412966  0.81498570     0.14700
H2616       H  0.01519495  0.07393002  0.75445019     0.14700
C2617       C  0.99847718  0.07211780  0.80951051     0.36400
C2618       C  0.05432978  0.14668533  0.76038788     0.36300
N2619       N  0.98654138  0.05721858  0.81897141    -0.44000
N2620       N  0.06467997  0.16278951  0.75109662    -0.44000
C2621       C  0.95426063  0.99475613  0.88530162    -0.00400
C2622       C  0.94246304  0.01151537  0.86746122    -0.12200
C2623       C  0.94288139  0.03597006  0.87471293     0.01900
C2624       C  0.95530489  0.04375005  0.90008815    -0.00500
C2625       C  0.96529352  0.02681440  0.91908037    -0.12200
C2626       C  0.96467657  0.00254258  0.91214213     0.01800
H2627       H  0.93426351  0.00573022  0.84693239     0.14700
H2628       H  0.97438292  0.03268908  0.93899791     0.14700
C2629       C  0.97524919  0.98606237  0.93284606     0.36400
C2630       C  0.93221226  0.05284268  0.85463388     0.36300
N2631       N  0.98368263  0.97300422  0.94961163    -0.44000
N2632       N  0.92372080  0.06645986  0.83860110    -0.44000
C2633       C  0.13270648  0.16709371  0.54750806    -0.00400
C2634       C  0.13948340  0.16781422  0.57738779    -0.12200
C2635       C  0.12748921  0.15420074  0.59857291     0.01900
C2636       C  0.10819444  0.13991466  0.58984130    -0.00500
C2637       C  0.10330488  0.13707746  0.55957041    -0.12200
C2638       C  0.11553329  0.15039002  0.53829112     0.01800
H2639       H  0.15263903  0.18064693  0.58455580     0.14700
H2640       H  0.08823980  0.12643868  0.55282080     0.14700
C2641       C  0.10775473  0.14895166  0.50783851     0.36400
C2642       C  0.13321932  0.15764944  0.62949690     0.36300
N2643       N  0.10133972  0.14760516  0.48353416    -0.44000
N2644       N  0.13793498  0.16050492  0.65422486    -0.44000
C2645       C  0.08548324  0.19394443  0.94605873    -0.00400
C2646       C  0.08933649  0.17489662  0.92608321    -0.12200
C2647       C  0.07032788  0.16218238  0.91395913     0.01900
C2648       C  0.04674290  0.16876951  0.92119170    -0.00500
C2649       C  0.04279521  0.18857298  0.93981230    -0.12200
C2650       C  0.06176942  0.20100860  0.95246172     0.01800
H2651       H  0.10731646  0.16924902  0.92073474     0.14700
H2652       H  0.02474100  0.19388501  0.94535269     0.14700
C2653       C  0.05615903  0.22085927  0.97193205     0.36400
C2654       C  0.07557188  0.14257921  0.89395970     0.36300
N2655       N  0.05006735  0.23515833  0.49080861    -0.44000
N2656       N  0.07977977  0.12686160  0.87795387    -0.44000
C2657       C  0.27927931  0.21681094  0.52485985    -0.00400
C2658       C  0.27348167  0.20459308  0.99617975    -0.12200
C2659       C  0.24990031  0.20473839  0.98598738     0.01900
C2660       C  0.23226961  0.21719989  0.00225200    -0.00500
C2661       C  0.23835468  0.23043142  0.53045081    -0.12200
C2662       C  0.26173797  0.22997821  0.54056690     0.01800
H2663       H  0.28729297  0.19630933  0.98270718     0.14700
H2664       H  0.22535406  0.24155293  0.54192563     0.14700
C2665       C  0.26740150  0.24367668  0.56687237     0.36400
C2666       C  0.24458582  0.19373823  0.95777512     0.36300
N2667       N  0.27193803  0.25458419  0.58797267    -0.44000
N2668       N  0.24031775  0.18497772  0.93510906    -0.44000
C2669       C  0.08326388  0.19309864  0.69235879    -0.00400
C2670       C  0.10510716  0.18941107  0.70675606    -0.12200
C2671       C  0.11780571  0.20838590  0.71903387     0.01900
C2672       C  0.10867572  0.23182543  0.71736854    -0.00500
C2673       C  0.08653891  0.23558619  0.70403622    -0.12200
C2674       C  0.07385564  0.21664870  0.69146433     0.01800
H2675       H  0.11257873  0.17160397  0.70826182     0.14700
H2676       H  0.07935413  0.25354655  0.70277018     0.14700
C2677       C  0.05142147  0.22227709  0.67772127     0.36400
C2678       C  0.13986160  0.20312953  0.73392027     0.36300
N2679       N  0.03347529  0.22694274  0.66672757    -0.44000
N2680       N  0.15749814  0.19888590  0.74589447    -0.44000
C2681       C  0.15667903  0.26713952  0.83290403    -0.00400
C2682       C  0.17252945  0.24817676  0.83874465    -0.12200
C2683       C  0.17716826  0.24082268  0.86793760     0.01900
C2684       C  0.16614879  0.25278694  0.89201416    -0.00500
C2685       C  0.15053966  0.27177620  0.88620747    -0.12200
C2686       C  0.14561964  0.27895279  0.85728845     0.01800
H2687       H  0.18124095  0.23891230  0.82046023     0.14700
H2688       H  0.14165761  0.28090535  0.90451361     0.14700
C2689       C  0.12928318  0.29872337  0.85384325     0.36400
C2690       C  0.19375716  0.22149411  0.87255358     0.36300
N2691       N  0.11606523  0.31446905  0.85139019    -0.44000
N2692       N  0.20709628  0.20601614  0.87618746    -0.44000
C2693       C  0.17134642  0.29094524  0.64140571    -0.00400
C2694       C  0.15301675  0.30128705  0.62467447    -0.12200
C2695       C  0.14851242  0.29364232  0.59576153     0.01900
C2696       C  0.16280934  0.27564399  0.58289040    -0.00500
C2697       C  0.18198750  0.26620982  0.59881077    -0.12200
C2698       C  0.18620140  0.27350030  0.62808629     0.01800
H2699       H  0.14141232  0.31466118  0.63465710     0.14700
H2700       H  0.19319767  0.25257871  0.58867678     0.14700
C2701       C  0.20580637  0.26287877  0.64383629     0.36400
C2702       C  0.12921959  0.30463215  0.57970696     0.36300
N2703       N  0.22153855  0.25433765  0.65640745    -0.44000
N2704       N  0.11378994  0.31346695  0.56686252    -0.44000
C2705       C  0.34675186  0.27687892  0.93911908    -0.00400
C2706       C  0.33202734  0.26300396  0.92106106    -0.12200
C2707       C  0.32920749  0.26845258  0.89099950     0.01900
C2708       C  0.34088621  0.28843973  0.87889616    -0.00500
C2709       C  0.35433730  0.30318154  0.89760362    -0.12200
C2710       C  0.35763748  0.29734859  0.92742949     0.01800
H2711       H  0.32370788  0.24720004  0.93009466     0.14700
H2712       H  0.36343645  0.31852110  0.88851530     0.14700
C2713       C  0.37282392  0.31218660  0.94539921     0.36400
C2714       C  0.31454494  0.25308852  0.87304484     0.36300
N2715       N  0.38504428  0.32407372  0.95972348    -0.44000
N2716       N  0.30280051  0.24073106  0.85870358    -0.44000
C2717       C  0.34759778  0.26121726  0.68895111    -0.00400
C2718       C  0.35952772  0.24084026  0.67843938    -0.12200
C2719       C  0.35691695  0.23312362  0.64900817     0.01900
C2720       C  0.34315360  0.24676937  0.62903026    -0.00500
C2721       C  0.33031351  0.26655187  0.64009987    -0.12200
C2722       C  0.33197746  0.27346223  0.66998373     0.01800
H2723       H  0.37112548  0.23106140  0.69324612     0.14700
H2724       H  0.31918776  0.27683335  0.62527018     0.14700
C2725       C  0.31806731  0.29355153  0.68047380     0.36400
C2726       C  0.36911170  0.21153925  0.63995321     0.36300
N2727       N  0.30666212  0.30943719  0.68899486    -0.44000
N2728       N  0.37852969  0.19393761  0.63307927    -0.44000
C2729       C  0.27955916  0.32101393  0.77524784    -0.00400
C2730       C  0.27304118  0.33289098  0.74913119    -0.12200
C2731       C  0.24930732  0.33299878  0.73960298     0.01900
C2732       C  0.23187766  0.32108170  0.75648771    -0.00500
C2733       C  0.23818887  0.31123127  0.78392293    -0.12200
C2734       C  0.26171258  0.31122095  0.79345165     0.01800
H2735       H  0.28667910  0.34064625  0.73518323     0.14700
H2736       H  0.22476912  0.30267441  0.79749521     0.14700
C2737       C  0.26717415  0.30068682  0.82182353     0.36400
C2738       C  0.24371177  0.34363120  0.71138737     0.36300
N2739       N  0.27146622  0.29239477  0.84464879    -0.44000
N2740       N  0.23923794  0.35216268  0.68875581    -0.44000
C2741       C  0.77711632  0.71725413  0.76366897    -0.00400
C2742       C  0.76090773  0.70611883  0.78285633    -0.12200
C2743       C  0.73640950  0.70687133  0.77700917     0.01900
C2744       C  0.72808113  0.71866362  0.75145557    -0.00500
C2745       C  0.74443491  0.72818725  0.73134297    -0.12200
C2746       C  0.76870387  0.72754942  0.73711175     0.01800
H2747       H  0.76717174  0.69839920  0.80340892     0.14700
H2748       H  0.73810913  0.73699447  0.71148233     0.14700
C2749       C  0.78450541  0.73840050  0.71577739     0.36400
C2750       C  0.72013496  0.69745754  0.79878322     0.36300
N2751       N  0.79701150  0.74720769  0.69863879    -0.44000
N2752       N  0.70708381  0.69002058  0.81631115    -0.44000
C2753       C  0.89945956  0.80709883  0.80146778    -0.00400
C2754       C  0.92349890  0.81054457  0.79402031    -0.12200
C2755       C  0.93588300  0.83059027  0.80417571     0.01900
C2756       C  0.92413621  0.84796726  0.82174304    -0.00500
C2757       C  0.90015469  0.84486212  0.82885350    -0.12200
C2758       C  0.88786901  0.82458861  0.81951604     0.01800
H2759       H  0.93275777  0.79754822  0.78020137     0.14700
H2760       H  0.89120838  0.85788359  0.84298045     0.14700
C2761       C  0.86377052  0.82204107  0.83017771     0.36400
C2762       C  0.96041604  0.83329747  0.79547440     0.36300
N2763       N  0.84454483  0.82007601  0.83899172    -0.44000
N2764       N  0.98001327  0.83555366  0.78824714    -0.44000
C2765       C  0.65257452  0.76375901  0.58965124    -0.00400
C2766       C  0.66972783  0.74648344  0.59707131    -0.12200
C2767       C  0.67426751  0.74086597  0.62675839     0.01900
C2768       C  0.66194027  0.75313916  0.64954121    -0.00500
C2769       C  0.64501705  0.77051859  0.64212474    -0.12200
C2770       C  0.64001805  0.77574335  0.61266728     0.01800
H2771       H  0.67945280  0.73716163  0.57964023     0.14700
H2772       H  0.63512844  0.77974692  0.65952979     0.14700
C2773       C  0.62210920  0.79374943  0.60715643     0.36400
C2774       C  0.69191999  0.72288620  0.63319640     0.36300
N2775       N  0.60763848  0.80809339  0.60309596    -0.44000
N2776       N  0.70603169  0.70843217  0.63836827    -0.44000
C2777       C  0.66820073  0.78146887  0.89920328    -0.00400
C2778       C  0.64812660  0.76813952  0.89203954    -0.12200
C2779       C  0.64266602  0.76299698  0.86262989     0.01900
C2780       C  0.65777667  0.77116577  0.83963002    -0.00500
C2781       C  0.67842177  0.78386261  0.84708049    -0.12200
C2782       C  0.68361531  0.78921183  0.87671567     0.01800
H2783       H  0.63624746  0.76227288  0.90958702     0.14700
H2784       H  0.69033806  0.78993456  0.82974952     0.14700
C2785       C  0.70498824  0.80209902  0.88361585     0.36400
C2786       C  0.62160709  0.74904849  0.85714462     0.36300
N2787       N  0.72227083  0.81223097  0.88907384    -0.44000
N2788       N  0.60469758  0.73789979  0.85302449    -0.44000
C2789       C  0.84567527  0.78013683  0.62512916    -0.00400
C2790       C  0.83788169  0.79615912  0.64733745    -0.12200
C2791       C  0.84074310  0.79088662  0.67750155     0.01900
C2792       C  0.85226995  0.76951589  0.68582433    -0.00500
C2793       C  0.85953218  0.75334647  0.66371463    -0.12200
C2794       C  0.85602555  0.75813064  0.63376605     0.01800
H2795       H  0.82968477  0.81294954  0.64114474     0.14700
H2796       H  0.86798894  0.73667055  0.66988799     0.14700
C2797       C  0.86384435  0.74007775  0.61277684     0.36400
C2798       C  0.83243353  0.80806409  0.69926087     0.36300
N2799       N  0.86990626  0.72529546  0.59631044    -0.44000
N2800       N  0.82566407  0.82178977  0.71669592    -0.44000
C2801       C  0.85442914  0.76186730  0.93323830    -0.00400
C2802       C  0.83712910  0.74419774  0.92834615    -0.12200
C2803       C  0.83159960  0.73653705  0.89954660     0.01900
C2804       C  0.84289068  0.74724068  0.87522160    -0.00500
C2805       C  0.86001324  0.76484333  0.87996725    -0.12200
C2806       C  0.86616821  0.77198210  0.90854416     0.01800
H2807       H  0.82814810  0.73609352  0.94706216     0.14700
H2808       H  0.86912690  0.77265328  0.86110753     0.14700
C2809       C  0.88442817  0.78983529  0.91144570     0.36400
C2810       C  0.81413611  0.71809189  0.89542731     0.36300
N2811       N  0.89915897  0.80405828  0.91339925    -0.44000
N2812       N  0.80014114  0.70329477  0.89211039    -0.44000
C2813       C  0.73229443  0.81064429  0.00926321    -0.00400
C2814       C  0.73795641  0.79498667  0.53063178    -0.12200
C2815       C  0.76183859  0.79484269  0.53857590     0.01900
C2816       C  0.77749159  0.81188440  0.52653672    -0.00500
C2817       C  0.77271761  0.82405301  0.99977802    -0.12200
C2818       C  0.74863151  0.82374786  0.99193842     0.01800
H2819       H  0.72645727  0.78120180  0.53934799     0.14700
H2820       H  0.78544064  0.83301788  0.98561164     0.14700
C2821       C  0.74158876  0.83548180  0.96492336     0.36400
C2822       C  0.76979820  0.77695058  0.55932512     0.36300
N2823       N  0.73603869  0.84492530  0.94325135    -0.44000
N2824       N  0.77620726  0.76271332  0.57601390    -0.44000
C2825       C  0.87595777  0.86717633  0.96797678    -0.00400
C2826       C  0.88946003  0.88683079  0.97722541    -0.12200
C2827       C  0.90145737  0.90079612  0.95628590     0.01900
C2828       C  0.89980438  0.89498187  0.92592272    -0.00500
C2829       C  0.88331440  0.87789346  0.91668201    -0.12200
C2830       C  0.87129768  0.86400938  0.93750692     0.01800
H2831       H  0.89173426  0.89048838  0.50217961     0.14700
H2832       H  0.88170465  0.87366771  0.89325380     0.14700
C2833       C  0.85579415  0.84534071  0.92712955     0.36400
C2834       C  0.91726071  0.91928008  0.96643550     0.36300
N2835       N  0.84322787  0.83052109  0.91875877    -0.44000
N2836       N  0.92987761  0.93415921  0.97452258    -0.44000
C2837       C  0.96506254  0.86945954  0.59921652    -0.00400
C2838       C  0.94191637  0.87875701  0.60196387    -0.12200
C2839       C  0.92242484  0.86716122  0.58918153     0.01900
C2840       C  0.92571950  0.84543880  0.57334560    -0.00500
C2841       C  0.94887341  0.83611548  0.57068277    -0.12200
C2842       C  0.96839786  0.84786566  0.58314335     0.01800
H2843       H  0.93901735  0.89544393  0.61379975     0.14700
H2844       H  0.95186700  0.81971939  0.55826233     0.14700
C2845       C  0.99173468  0.83797137  0.57741996     0.36400
C2846       C  0.89955613  0.87886292  0.59126861     0.36300
N2847       N  0.01041529  0.83007962  0.57265787    -0.44000
N2848       N  0.88128974  0.88836551  0.59283793    -0.44000
C2849       C  0.54908377  0.87243389  0.92674341    -0.00400
C2850       C  0.54860984  0.84737015  0.92441356    -0.12200
C2851       C  0.56755624  0.83332267  0.93418333     0.01900
C2852       C  0.58775478  0.84428171  0.94641462    -0.00500
C2853       C  0.58878206  0.86928357  0.94761911    -0.12200
C2854       C  0.56973227  0.88339715  0.93823133     0.01800
H2855       H  0.53315293  0.83851954  0.91537423     0.14700
H2856       H  0.60417414  0.87790098  0.95719916     0.14700
C2857       C  0.57204369  0.90895415  0.94120483     0.36400
C2858       C  0.56580517  0.80775653  0.93096838     0.36300
N2859       N  0.57406269  0.92939780  0.94381837    -0.44000
N2860       N  0.56415460  0.78731097  0.92809029    -0.44000
C2861       C  0.40646894  0.23159731  0.79604087    -0.00400
C2862       C  0.40569612  0.20968606  0.78097470    -0.12200
C2863       C  0.41872672  0.18990858  0.79099817     0.01900
C2864       C  0.43255549  0.19173505  0.81722464    -0.00500
C2865       C  0.43361479  0.21408541  0.83171175    -0.12200
C2866       C  0.42081881  0.23382687  0.82138968     0.01800
H2867       H  0.39488213  0.20804925  0.76121861     0.14700
H2868       H  0.44394449  0.21612177  0.85178871     0.14700
C2869       C  0.42156203  0.25583835  0.83824341     0.36400
C2870       C  0.41722383  0.16812156  0.77384190     0.36300
N2871       N  0.42200516  0.27343676  0.85180784    -0.44000
N2872       N  0.41598830  0.15074011  0.75993540    -0.44000
C2873       C  0.40679366  0.14386363  0.91955035    -0.00400
C2874       C  0.40859512  0.13832107  0.94975368    -0.12200
C2875       C  0.39527035  0.15092769  0.97103386     0.01900
C2876       C  0.38034390  0.16987798  0.96205904    -0.00500
C2877       C  0.37647486  0.17346703  0.93167027    -0.12200
C2878       C  0.38926552  0.16031675  0.91033934     0.01800
H2879       H  0.42191907  0.12556460  0.95690569     0.14700
H2880       H  0.36491059  0.18788880  0.92464347     0.14700
C2881       C  0.38607997  0.16611859  0.87940807     0.36400
C2882       C  0.39897326  0.14556928  0.50396369     0.36300
N2883       N  0.38338373  0.17073285  0.85464527    -0.44000
N2884       N  0.40231665  0.14155579  0.52876597    -0.44000
C2885       C  0.45843503  0.99515629  0.88505038    -0.00400
C2886       C  0.44509463  0.01229006  0.90095519    -0.12200
C2887       C  0.44407713  0.03614961  0.89132949     0.01900
C2888       C  0.45701511  0.04306718  0.86582619    -0.00500
C2889       C  0.46852344  0.02550066  0.84875264    -0.12200
C2890       C  0.46892644  0.00174483  0.85775480     0.01800
H2891       H  0.43653984  0.00736306  0.92163736     0.14700
H2892       H  0.47777187  0.03049167  0.82853448     0.14700
C2893       C  0.48003583  0.98444770  0.83822145     0.36400
C2894       C  0.43108633  0.05343042  0.90902336     0.36300
N2895       N  0.48867515  0.97079985  0.82205837    -0.44000
N2896       N  0.42068598  0.06734084  0.92314376    -0.44000
C2897       C  0.57813298  0.84736305  0.70106249    -0.00400
C2898       C  0.60024772  0.85087285  0.71460684    -0.12200
C2899       C  0.61269295  0.83205436  0.72776869     0.01900
C2900       C  0.60292478  0.80877921  0.72806974    -0.00500
C2901       C  0.58041696  0.80541497  0.71531997    -0.12200
C2902       C  0.56809466  0.82425818  0.70181117     0.01800
H2903       H  0.60835935  0.86837419  0.71412496     0.14700
H2904       H  0.57252971  0.78780964  0.71524710     0.14700
C2905       C  0.54519695  0.81917334  0.68904759     0.36400
C2906       C  0.63558287  0.83746835  0.74035210     0.36300
N2907       N  0.52690049  0.81489721  0.67880579    -0.44000
N2908       N  0.65395423  0.84194540  0.75024736    -0.44000
C2909       C  0.60458114  0.89536493  0.59407941    -0.00400
C2910       C  0.62282914  0.88031010  0.60407878    -0.12200
C2911       C  0.63552731  0.86597689  0.58389585     0.01900
C2912       C  0.63026515  0.86723482  0.55342980    -0.00500
C2913       C  0.61472982  0.88497502  0.54321834    -0.12200
C2914       C  0.60159682  0.89884338  0.56339855     0.01800
H2915       H  0.62519620  0.87763284  0.62764900     0.14700
H2916       H  0.61074365  0.88602299  0.51977411     0.14700
C2917       C  0.58344944  0.91470883  0.55230633     0.36400
C2918       C  0.65241638  0.84876007  0.59498227     0.36300
N2919       N  0.56888345  0.92741149  0.54346539    -0.44000
N2920       N  0.66602275  0.83501199  0.60380757    -0.44000
C2921       C  0.49931705  0.92497350  0.56314091    -0.00400
C2922       C  0.50922356  0.94429503  0.54780550    -0.12200
C2923       C  0.50367387  0.94832077  0.51789777     0.01900
C2924       C  0.48731426  0.93332930  0.50339384    -0.00500
C2925       C  0.47667222  0.91469819  0.51931406    -0.12200
C2926       C  0.48278546  0.91021809  0.54876530     0.01800
H2927       H  0.52194662  0.95569266  0.55888146     0.14700
H2928       H  0.46425169  0.90291229  0.50829937     0.14700
C2929       C  0.47193210  0.89032926  0.56380005     0.36400
C2930       C  0.50789082  0.97160016  0.00579237     0.36300
N2931       N  0.46332466  0.87439327  0.57591802    -0.44000
N2932       N  0.51458031  0.98895552  0.99486070    -0.44000
C2933       C  0.52378928  0.93114896  0.75379693    -0.00400
C2934       C  0.50407672  0.91697556  0.76030497    -0.12200
C2935       C  0.49811538  0.91117763  0.78937185     0.01900
C2936       C  0.51173689  0.92020416  0.81329500    -0.00500
C2937       C  0.53146841  0.93468300  0.80680270    -0.12200
C2938       C  0.53773149  0.93996749  0.77731580     0.01800
H2939       H  0.49360001  0.90957132  0.74234142     0.14700
H2940       H  0.54210458  0.94180316  0.82474671     0.14700
C2941       C  0.55810811  0.95483017  0.77182818     0.36400
C2942       C  0.47791820  0.89571284  0.79338975     0.36300
N2943       N  0.57443412  0.96676431  0.76743505    -0.44000
N2944       N  0.46192517  0.88306703  0.79635385    -0.44000
C2945       C  0.43107713  0.19396759  0.56393061    -0.00400
C2946       C  0.43409413  0.19243841  0.59480884    -0.12200
C2947       C  0.45406223  0.18099090  0.60686019     0.01900
C2948       C  0.47124901  0.17058942  0.58785291    -0.00500
C2949       C  0.46841585  0.17225293  0.55708631    -0.12200
C2950       C  0.44876248  0.18399316  0.54499166     0.01800
H2951       H  0.42093513  0.20030785  0.60952505     0.14700
H2952       H  0.48158936  0.16418496  0.54242611     0.14700
C2953       C  0.44684627  0.18464024  0.51302122     0.36400
C2954       C  0.45608046  0.17923165  0.63870816     0.36300
N2955       N  0.44542138  0.18515879  0.48741018    -0.44000
N2956       N  0.45771058  0.17771512  0.66422642    -0.44000
C2957       C  0.53264853  0.10675977  0.50937827    -0.00400
C2958       C  0.51392065  0.08913344  0.99698389    -0.12200
C2959       C  0.50677856  0.09095409  0.96722604     0.01900
C2960       C  0.51438887  0.11046400  0.94999813    -0.00500
C2961       C  0.53045912  0.12667511  0.96222302    -0.12200
C2962       C  0.54212091  0.12441886  0.49042306     0.01800
H2963       H  0.50713549  0.07478349  0.01059267     0.14700
H2964       H  0.53663759  0.14152869  0.94896563     0.14700
C2965       C  0.55960258  0.14137399  0.50021139     0.36400
C2966       C  0.49094451  0.07319252  0.95541574     0.36300
N2967       N  0.57368570  0.15515344  0.50735164    -0.44000
N2968       N  0.47845227  0.05868941  0.94610436    -0.44000
C2969       C  0.50272416  0.11889027  0.70113369    -0.00400
C2970       C  0.50313328  0.13792988  0.72164012    -0.12200
C2971       C  0.49663889  0.13471737  0.75124794     0.01900
C2972       C  0.48915075  0.11215949  0.76101971    -0.00500
C2973       C  0.48788606  0.09318216  0.74070899    -0.12200
C2974       C  0.49480943  0.09626250  0.71094442     0.01800
H2975       H  0.50880690  0.15549200  0.71466714     0.14700
H2976       H  0.48232693  0.07576640  0.74835241     0.14700
C2977       C  0.49480858  0.07561328  0.69162132     0.36400
C2978       C  0.49779856  0.15494254  0.77128379     0.36300
N2979       N  0.49490741  0.05900621  0.67621393    -0.44000
N2980       N  0.49872876  0.17114833  0.78727717    -0.44000
C2981       C  0.55770700  0.04310532  0.61923512    -0.00400
C2982       C  0.57032436  0.03640690  0.64475554    -0.12200
C2983       C  0.56959979  0.01270891  0.65510131     0.01900
C2984       C  0.55584861  0.99557441  0.63991861    -0.00500
C2985       C  0.54461038  0.00209278  0.61342191    -0.12200
C2986       C  0.54558302  0.02547202  0.60294350     0.01800
H2987       H  0.57959543  0.04989903  0.65747433     0.14700
H2988       H  0.53444286  0.98893582  0.60121961     0.14700
C2989       C  0.53354135  0.03113841  0.57561126     0.36400
C2990       C  0.58161552  0.00683010  0.68231807     0.36300
N2991       N  0.52403456  0.03570581  0.55364230    -0.44000
N2992       N  0.59126544  0.00209045  0.70413286    -0.44000
C2993       C  0.93225179  0.69104084  0.57104165    -0.00400
C2994       C  0.91849955  0.68764164  0.54530059    -0.12200
C2995       C  0.90719596  0.70685985  0.53123971     0.01900
C2996       C  0.90964399  0.73020633  0.54260010    -0.00500
C2997       C  0.92426028  0.73394913  0.56721217    -0.12200
C2998       C  0.93534972  0.71480171  0.58161732     0.01800
H2999       H  0.91610744  0.66983476  0.53632542     0.14700
H3000       H  0.92610869  0.75186857  0.57613854     0.14700
C3001       C  0.94912745  0.72038880  0.60766604     0.36400
C3002       C  0.88675650  0.69895545  0.01123573     0.36300
N3003       N  0.96009348  0.72501486  0.62855554    -0.44000
N3004       N  0.87253202  0.69482540  0.99351860    -0.44000
C3005       C  0.90661172  0.63992159  0.67810467    -0.00400
C3006       C  0.88684502  0.65311793  0.66841642    -0.12200
C3007       C  0.87309697  0.66636019  0.68875636     0.01900
C3008       C  0.87863450  0.66557579  0.71915672    -0.00500
C3009       C  0.89606497  0.64968285  0.72909305    -0.12200
C3010       C  0.91034151  0.63715272  0.70886620     0.01800
H3011       H  0.88387180  0.65539487  0.64483297     0.14700
H3012       H  0.90038863  0.64920913  0.75253858     0.14700
C3013       C  0.93025933  0.62381525  0.72030101     0.36400
C3014       C  0.85496337  0.68229194  0.67782322     0.36300
N3015       N  0.94627211  0.61356620  0.73006077    -0.44000
N3016       N  0.84035543  0.69497850  0.66904784    -0.44000
C3017       C  0.95232007  0.49376584  0.64512136    -0.00400
C3018       C  0.95432712  0.51218887  0.66604068    -0.12200
C3019       C  0.95353639  0.53605617  0.65715972     0.01900
C3020       C  0.95173893  0.54174462  0.62681343    -0.00500
C3021       C  0.94816285  0.52337118  0.60607255    -0.12200
C3022       C  0.94799291  0.49943863  0.61513528     0.01800
H3023       H  0.95723930  0.50790642  0.68918992     0.14700
H3024       H  0.94657474  0.52763278  0.58272041     0.14700
C3025       C  0.94446951  0.48094726  0.59317808     0.36400
C3026       C  0.95489654  0.55445297  0.67953005     0.36300
N3027       N  0.94127953  0.46610491  0.57570585    -0.44000
N3028       N  0.95545089  0.56911502  0.69765773    -0.44000
C3029       C  0.04463125  0.36942786  0.66747683    -0.00400
C3030       C  0.06753548  0.37831197  0.66229951    -0.12200
C3031       C  0.08773298  0.36684843  0.67359276     0.01900
C3032       C  0.08528515  0.34604990  0.69111550    -0.00500
C3033       C  0.06232487  0.33670668  0.69520265    -0.12200
C3034       C  0.04219942  0.34808308  0.68372929     0.01800
H3035       H  0.06969695  0.39450836  0.64953894     0.14700
H3036       H  0.05983624  0.32075843  0.70833182     0.14700
C3037       C  0.01923073  0.33812895  0.69066930     0.36400
C3038       C  0.11052407  0.37732077  0.66713082     0.36300
N3039       N  0.00085385  0.33015248  0.69629506    -0.44000
N3040       N  0.12873313  0.38581604  0.66188025    -0.44000
C3041       C  0.96412348  0.66439411  0.84698387    -0.00400
C3042       C  0.96561407  0.68912165  0.84252301    -0.12200
C3043       C  0.94631359  0.70218142  0.83137803     0.01900
C3044       C  0.92472769  0.69050004  0.82459687    -0.00500
C3045       C  0.92290488  0.66599495  0.83066990    -0.12200
C3046       C  0.94221300  0.65296018  0.84166343     0.01800
H3047       H  0.98218608  0.69821703  0.84690797     0.14700
H3048       H  0.90651800  0.65668887  0.82592260     0.14700
C3049       C  0.93883830  0.62790553  0.84762149     0.36400
C3050       C  0.94932782  0.72751499  0.82716871     0.36300
N3051       N  0.93611083  0.60784565  0.85243456    -0.44000
N3052       N  0.95178952  0.74780593  0.82377906    -0.44000
C3053       C  0.01541938  0.61141879  0.70434519    -0.00400
C3054       C  0.01008881  0.59005188  0.71905422    -0.12200
C3055       C  0.01651171  0.58667420  0.74880850     0.01900
C3056       C  0.02921738  0.60458199  0.76392698    -0.00500
C3057       C  0.03627408  0.62501836  0.74838520    -0.12200
C3058       C  0.02941862  0.62862706  0.71897267     0.01800
H3059       H  0.00025652  0.57628601  0.70760922     0.14700
H3060       H  0.04641023  0.63874095  0.75964508     0.14700
C3061       C  0.03736496  0.64995425  0.70415873     0.36400
C3062       C  0.01017222  0.56465660  0.76319774     0.36300
N3063       N  0.04386544  0.66697308  0.69226764    -0.44000
N3064       N  0.00518640  0.54697342  0.77472847    -0.44000
C3065       C  0.98558874  0.60305283  0.51429706    -0.00400
C3066       C  0.00785840  0.59614311  0.00511549    -0.12200
C3067       C  0.01559583  0.60051606  0.97609092     0.01900
C3068       C  0.99996563  0.61076418  0.95546932    -0.00500
C3069       C  0.97644035  0.61553621  0.96395242    -0.12200
C3070       C  0.96950950  0.61158088  0.49255715     0.01800
H3071       H  0.02038258  0.58868591  0.02077601     0.14700
H3072       H  0.96436843  0.62335072  0.94799276     0.14700
C3073       C  0.94521029  0.61786747  0.49950342     0.36400
C3074       C  0.03974445  0.59446871  0.96799416     0.36300
N3075       N  0.92569974  0.62295045  0.50484111    -0.44000
N3076       N  0.05906816  0.58951870  0.96152053    -0.44000
C3077       C  0.01299529  0.42927921  0.56213761    -0.00400
C3078       C  0.99793197  0.44214594  0.54342210    -0.12200
C3079       C  0.00335305  0.44459985  0.51325446     0.01900
C3080       C  0.02458921  0.43453881  0.50174581    -0.00500
C3081       C  0.04033760  0.42298634  0.52110884    -0.12200
C3082       C  0.03450579  0.41993213  0.55099208     0.01800
H3083       H  0.98131022  0.44916409  0.55205176     0.14700
H3084       H  0.05276519  0.40500629  0.01080692     0.14700
C3085       C  0.05040163  0.40636212  0.56953724     0.36400
C3086       C  0.98658133  0.45698788  0.49464422     0.36300
N3087       N  0.06312185  0.39539981  0.58430922    -0.44000
N3088       N  0.97302806  0.46682826  0.47980179    -0.44000
C3089       C  0.00260433  0.41802753  0.81104284    -0.00400
C3090       C  0.98279765  0.43259631  0.80485321    -0.12200
C3091       C  0.97546972  0.43654230  0.77546821     0.01900
C3092       C  0.98855728  0.42642223  0.75165355    -0.00500
C3093       C  0.00824365  0.41189862  0.75794726    -0.12200
C3094       C  0.01519397  0.40741608  0.78701093     0.01800
H3095       H  0.97280713  0.44064036  0.82300721     0.14700
H3096       H  0.01815920  0.40353014  0.73991409     0.14700
C3097       C  0.03553759  0.39194529  0.79103390     0.36400
C3098       C  0.95480983  0.45127921  0.77042174     0.36300
N3099       N  0.05166271  0.37929077  0.79387742    -0.44000
N3100       N  0.93817625  0.46301058  0.76638663    -0.44000
C3101       C  0.05763200  0.49366266  0.89371767    -0.00400
C3102       C  0.06391387  0.49973247  0.86454447    -0.12200
C3103       C  0.06380631  0.52368046  0.85559169     0.01900
C3104       C  0.05704351  0.54166986  0.87603086    -0.00500
C3105       C  0.05222039  0.53560040  0.90559768    -0.12200
C3106       C  0.05264636  0.51181435  0.91459928     0.01800
H3107       H  0.06758083  0.48572246  0.84841051     0.14700
H3108       H  0.04710240  0.54941902  0.92138867     0.14700
C3109       C  0.04690902  0.50630378  0.94507456     0.36400
C3110       C  0.06867879  0.52919200  0.82490139     0.36300
N3111       N  0.04247524  0.50186422  0.96952648    -0.44000
N3112       N  0.07254610  0.53368322  0.80031155    -0.44000
C3113       C  0.10625316  0.30485093  0.97502658    -0.00400
C3114       C  0.11029118  0.32781773  0.98642342    -0.12200
C3115       C  0.09821098  0.34776133  0.97516293     0.01900
C3116       C  0.08209051  0.34496993  0.95131022    -0.00500
C3117       C  0.07767019  0.32170731  0.94067924    -0.12200
C3118       C  0.08948752  0.30184562  0.95222939     0.01800
H3119       H  0.12298734  0.33018212  0.00420964     0.14700
H3120       H  0.06550119  0.31893538  0.92242975     0.14700
C3121       C  0.08210274  0.28123473  0.44337272     0.36400
C3122       C  0.10275738  0.37067341  0.98875059     0.36300
N3123       N  0.07747256  0.26289038  0.43307678    -0.44000
N3124       N  0.10635698  0.38898879  0.99979932    -0.44000
C3125       C  0.13315091  0.37194992  0.79876795    -0.00400
C3126       C  0.13900137  0.36809715  0.82850870    -0.12200
C3127       C  0.12622392  0.37965165  0.85107074     0.01900
C3128       C  0.10723144  0.39488128  0.84355008    -0.00500
C3129       C  0.10360673  0.40117756  0.81391249    -0.12200
C3130       C  0.11665296  0.38991291  0.79137245     0.01800
H3131       H  0.15166592  0.35419883  0.83410980     0.14700
H3132       H  0.08910782  0.41311087  0.80826517     0.14700
C3133       C  0.11072861  0.39483792  0.76085244     0.36400
C3134       C  0.13071627  0.37317480  0.88153593     0.36300
N3135       N  0.10597564  0.39888236  0.73643462    -0.44000
N3136       N  0.13423845  0.36802456  0.90596279    -0.44000
C3137       C  0.10205752  0.89433060  0.67775183    -0.00400
C3138       C  0.11910503  0.87815449  0.66669187    -0.12200
C3139       C  0.13280904  0.86444406  0.68611712     0.01900
C3140       C  0.13001298  0.86743231  0.71706197    -0.00500
C3141       C  0.11565037  0.88616484  0.72786701    -0.12200
C3142       C  0.10140481  0.89939482  0.70847087     0.01800
H3143       H  0.11981432  0.87422739  0.64308252     0.14700
H3144       H  0.11342339  0.88861860  0.75163291     0.14700
C3145       C  0.08499344  0.91679316  0.72070629     0.36400
C3146       C  0.14796087  0.84588454  0.67397064     0.36300
N3147       N  0.07186469  0.93075504  0.73051062    -0.44000
N3148       N  0.16006058  0.83095755  0.66430170    -0.44000
C3149       C  0.08145131  0.84519688  0.82205256    -0.00400
C3150       C  0.06034355  0.83252394  0.82662487    -0.12200
C3151       C  0.04019666  0.84365534  0.83898054     0.01900
C3152       C  0.04061322  0.86836932  0.84568080    -0.00500
C3153       C  0.06188077  0.88092719  0.84123177    -0.12200
C3154       C  0.08218461  0.86959805  0.82980521     0.01800
H3155       H  0.05953065  0.81386557  0.82030237     0.14700
H3156       H  0.06264710  0.89982811  0.84644710     0.14700
C3157       C  0.10305044  0.88383104  0.82446342     0.36400
C3158       C  0.01934902  0.82929921  0.84384507     0.36300
N3159       N  0.11973591  0.89525871  0.82009965    -0.44000
N3160       N  0.00277173  0.81766516  0.84802482    -0.44000
C3161       C  0.07667622  0.69105387  0.82023627    -0.00400
C3162       C  0.07200942  0.71415500  0.83123794    -0.12200
C3163       C  0.08398678  0.73399394  0.82003827     0.01900
C3164       C  0.10091220  0.73104233  0.79708603    -0.00500
C3165       C  0.10506207  0.70818160  0.78529571    -0.12200
C3166       C  0.09302463  0.68829309  0.79636577     0.01800
H3167       H  0.05979181  0.71668068  0.84969805     0.14700
H3168       H  0.11784881  0.70584815  0.76739403     0.14700
C3169       C  0.09789637  0.66539013  0.78266946     0.36400
C3170       C  0.08001842  0.75683067  0.83426676     0.36300
N3171       N  0.10183580  0.64705914  0.77167150    -0.44000
N3172       N  0.07697831  0.77500145  0.84604775    -0.44000
C3173       C  0.37888563  0.86478803  0.81126094    -0.00400
C3174       C  0.38960816  0.88603055  0.80174825    -0.12200
C3175       C  0.40404193  0.89917678  0.82108293     0.01900
C3176       C  0.40719935  0.89125899  0.85037302    -0.00500
C3177       C  0.39406114  0.87187012  0.86080270    -0.12200
C3178       C  0.38002546  0.85853310  0.84151733     0.01800
H3179       H  0.38906339  0.89077430  0.77845773     0.14700
H3180       H  0.39649372  0.86583010  0.88343727     0.14700
C3181       C  0.36896287  0.83712533  0.85259316     0.36400
C3182       C  0.41745402  0.91899466  0.80963233     0.36300
N3183       N  0.36024914  0.81992918  0.86150124    -0.44000
N3184       N  0.42834289  0.93479380  0.80046400    -0.44000
C3185       C  0.46513685  0.87122939  0.67445419    -0.00400
C3186       C  0.46940257  0.85060540  0.69106831    -0.12200
C3187       C  0.45078046  0.83776372  0.70397315     0.01900
C3188       C  0.42684544  0.84537397  0.70023198    -0.00500
C3189       C  0.42260121  0.86550818  0.68238358    -0.12200
C3190       C  0.44138870  0.87840762  0.66965669     0.01800
H3191       H  0.48755802  0.84483715  0.69478496     0.14700
H3192       H  0.40453903  0.87159639  0.67880473     0.14700
C3193       C  0.43578052  0.89857913  0.65114631     0.36400
C3194       C  0.45718996  0.81703037  0.72113044     0.36300
N3195       N  0.43129960  0.91468069  0.63618550    -0.44000
N3196       N  0.46251021  0.80047443  0.73486701    -0.44000
C3197       C  0.27902332  0.81595876  0.75984254    -0.00400
C3198       C  0.27090617  0.80200951  0.78351826    -0.12200
C3199       C  0.24689175  0.80150459  0.79138171     0.01900
C3200       C  0.23019199  0.81523279  0.77542773    -0.00500
C3201       C  0.23841700  0.83036253  0.75282974    -0.12200
C3202       C  0.26265351  0.83069452  0.74481761     0.01800
H3203       H  0.28338926  0.79088375  0.79546787     0.14700
H3204       H  0.22575660  0.84081407  0.74026473     0.14700
C3205       C  0.26995906  0.84468508  0.71963765     0.36400
C3206       C  0.23981035  0.78640628  0.81574931     0.36300
N3207       N  0.27587727  0.85577888  0.69935316    -0.44000
N3208       N  0.23406922  0.77428971  0.83518792    -0.44000
C3209       C  0.09932522  0.80442714  0.55274182    -0.00400
C3210       C  0.08515136  0.81879395  0.53437262    -0.12200
C3211       C  0.07319072  0.83898097  0.54596164     0.01900
C3212       C  0.07497076  0.84460948  0.57650175    -0.00500
C3213       C  0.08820519  0.82957256  0.59489117    -0.12200
C3214       C  0.10045979  0.80987504  0.58335434     0.01800
H3215       H  0.08407712  0.81472840  0.51085350     0.14700
H3216       H  0.08962892  0.83367801  0.61839533     0.14700
C3217       C  0.11407900  0.79560146  0.60369920     0.36400
C3218       C  0.05894527  0.85335460  0.52632735     0.36300
N3219       N  0.12492100  0.78452201  0.62046372    -0.44000
N3220       N  0.05378492  0.86746237  0.00973213    -0.44000
C3221       C  0.13382373  0.66868565  0.96307494    -0.00400
C3222       C  0.13586277  0.67401654  0.93285125    -0.12200
C3223       C  0.12295762  0.66109790  0.91181258     0.01900
C3224       C  0.10727478  0.64308819  0.92122612    -0.00500
C3225       C  0.10743090  0.63592950  0.95093769    -0.12200
C3226       C  0.12094854  0.64838263  0.97186803     0.01800
H3227       H  0.14576365  0.68960835  0.92600657     0.14700
H3228       H  0.09547508  0.62205872  0.95823550     0.14700
C3229       C  0.11570438  0.64273927  0.50386279     0.36400
C3230       C  0.12434332  0.66814517  0.88107556     0.36300
N3231       N  0.11275439  0.63798138  0.52855104    -0.44000
N3232       N  0.12573670  0.67375184  0.85645653    -0.44000
C3233       C  0.08177890  0.68954807  0.56849892    -0.00400
C3234       C  0.05850730  0.69790270  0.56368810    -0.12200
C3235       C  0.03883412  0.68617575  0.57557950     0.01900
C3236       C  0.04211415  0.66545735  0.59277932    -0.00500
C3237       C  0.06523046  0.65724176  0.59812389    -0.12200
C3238       C  0.08498328  0.66907264  0.58652686     0.01800
H3239       H  0.05547944  0.71348276  0.55004221     0.14700
H3240       H  0.06790245  0.64152935  0.61168590     0.14700
C3241       C  0.10811628  0.65969606  0.59403377     0.36400
C3242       C  0.01548518  0.69520592  0.56844137     0.36300
N3243       N  0.12657157  0.65210361  0.60024910    -0.44000
N3244       N  0.99682691  0.70248750  0.56262127    -0.44000
C3245       C  0.15759247  0.77471114  0.93886387    -0.00400
C3246       C  0.15982636  0.75637519  0.91784487    -0.12200
C3247       C  0.16345552  0.76120159  0.88788935     0.01900
C3248       C  0.16463598  0.78522969  0.87799017    -0.00500
C3249       C  0.16374565  0.80364603  0.89951832    -0.12200
C3250       C  0.16035459  0.79854964  0.92980400     0.01800
H3251       H  0.15820361  0.73795712  0.92489272     0.14700
H3252       H  0.16480348  0.82211383  0.89265956     0.14700
C3253       C  0.15831968  0.81803070  0.95078217     0.36400
C3254       C  0.16508109  0.74076220  0.86820509     0.36300
N3255       N  0.15668661  0.83366156  0.96759699    -0.44000
N3256       N  0.16625433  0.72427848  0.85263997    -0.44000
C3257       C  0.15803350  0.75909174  0.68824120    -0.00400
C3258       C  0.14107551  0.74422000  0.67527312    -0.12200
C3259       C  0.14363380  0.73624218  0.64601262     0.01900
C3260       C  0.16342718  0.74342410  0.62893201    -0.00500
C3261       C  0.18088836  0.75764830  0.64225532    -0.12200
C3262       C  0.17849365  0.76529720  0.67183004     0.01800
H3263       H  0.12535164  0.73936415  0.68783834     0.14700
H3264       H  0.19604545  0.76339388  0.62923808     0.14700
C3265       C  0.19644601  0.78070698  0.68413203     0.36400
C3266       C  0.12429599  0.72293943  0.63338090     0.36300
N3267       N  0.21081540  0.79305113  0.69403245    -0.44000
N3268       N  0.10835721  0.71257378  0.62384211    -0.44000
C3269       C  0.40720785  0.81088740  0.97754196    -0.00400
C3270       C  0.43043332  0.80696682  0.96700189    -0.12200
C3271       C  0.44402105  0.82557208  0.95525879     0.01900
C3272       C  0.43437757  0.84900162  0.95379066    -0.00500
C3273       C  0.41161635  0.85307830  0.96584905    -0.12200
C3274       C  0.39808146  0.83449267  0.97756846     0.01800
H3275       H  0.43786005  0.78907675  0.96707669     0.14700
H3276       H  0.40390597  0.87084894  0.96544970     0.14700
C3277       C  0.37489418  0.84045372  0.98941937     0.36400
C3278       C  0.46756392  0.81966635  0.94452406     0.36300
N3279       N  0.35632438  0.84534030  0.99884122    -0.44000
N3280       N  0.48639645  0.81475094  0.93598425    -0.44000
C3281       C  0.34699994  0.74972136  0.89577454    -0.00400
C3282       C  0.32843584  0.74607786  0.87577505    -0.12200
C3283       C  0.33167403  0.75047137  0.84537100     0.01900
C3284       C  0.35400658  0.75858857  0.83475012    -0.00500
C3285       C  0.37287903  0.76047951  0.85497227    -0.12200
C3286       C  0.36953903  0.75623648  0.88511102     0.01800
H3287       H  0.31123842  0.74047939  0.88403724     0.14700
H3288       H  0.39032977  0.76595982  0.84749049     0.14700
C3289       C  0.38965060  0.75853874  0.90472666     0.36400
C3290       C  0.31162306  0.74683255  0.82607508     0.36300
N3291       N  0.40578497  0.76028211  0.92036416    -0.44000
N3292       N  0.29547928  0.74373850  0.81077383    -0.44000
C3293       C  0.34800615  0.78021947  0.58570967    -0.00400
C3294       C  0.33020673  0.76862575  0.60191831    -0.12200
C3295       C  0.32653137  0.77399638  0.63201158     0.01900
C3296       C  0.34034246  0.79180425  0.64583770    -0.00500
C3297       C  0.35696651  0.80448038  0.62889187    -0.12200
C3298       C  0.36116454  0.79855572  0.59918024     0.01800
H3299       H  0.32003079  0.75455979  0.59146613     0.14700
H3300       H  0.36777307  0.81805323  0.63934954     0.14700
C3301       C  0.37948466  0.81109995  0.58316228     0.36400
C3302       C  0.30886804  0.76073573  0.64825770     0.36300
N3303       N  0.39423251  0.82106242  0.57035788    -0.44000
N3304       N  0.29475415  0.75003521  0.66125120    -0.44000
C3305       C  0.27964284  0.72650476  0.00822663    -0.00400
C3306       C  0.26609878  0.70676852  0.99906168    -0.12200
C3307       C  0.24272590  0.70510114  0.51033261     0.01900
C3308       C  0.23115159  0.72495608  0.52358565    -0.00500
C3309       C  0.24470132  0.74480564  0.53170278    -0.12200
C3310       C  0.26876178  0.74612065  0.52497810     0.01800
H3311       H  0.27429859  0.69293336  0.98546878     0.14700
H3312       H  0.23627566  0.75979681  0.54304363     0.14700
C3313       C  0.28095561  0.76744036  0.53444373     0.36400
C3314       C  0.22985344  0.68384312  0.50242227     0.36300
N3315       N  0.28988455  0.78487059  0.54238894    -0.44000
N3316       N  0.21954131  0.66674812  0.49619450    -0.44000
C3317       C  0.54422351  0.66729055  0.68036028    -0.00400
C3318       C  0.55778369  0.68195280  0.66165001    -0.12200
C3319       C  0.57708036  0.69488513  0.67280059     0.01900
C3320       C  0.58241481  0.69378902  0.70329792    -0.00500
C3321       C  0.56867396  0.67942325  0.72195844    -0.12200
C3322       C  0.54994560  0.66602297  0.71080609     0.01800
H3323       H  0.55358418  0.68293776  0.63825107     0.14700
H3324       H  0.57286193  0.67834353  0.74537690     0.14700
C3325       C  0.53668840  0.65159845  0.73144552     0.36400
C3326       C  0.59077645  0.70944207  0.65276525     0.36300
N3327       N  0.52634898  0.64010125  0.74830947    -0.44000
N3328       N  0.60181029  0.72106631  0.63671437    -0.44000
C3329       C  0.43234912  0.69116761  0.69845157    -0.00400
C3330       C  0.43784370  0.71435186  0.68898617    -0.12200
C3331       C  0.42515468  0.73411237  0.69964065     0.01900
C3332       C  0.40654505  0.73085840  0.72021827    -0.00500
C3333       C  0.40144800  0.70789237  0.73045087    -0.12200
C3334       C  0.41432497  0.68810453  0.72010230     0.01800
H3335       H  0.45146188  0.71704909  0.67224550     0.14700
H3336       H  0.38748961  0.70545262  0.74683070     0.14700
C3337       C  0.40883747  0.66506213  0.73250164     0.36400
C3338       C  0.43057034  0.75729065  0.68760065     0.36300
N3339       N  0.40444180  0.64663538  0.74252313    -0.44000
N3340       N  0.43486888  0.77577530  0.67769265    -0.44000
C3341       C  0.40685154  0.64503886  0.59451428    -0.00400
C3342       C  0.40995620  0.64137913  0.56396427    -0.12200
C3343       C  0.39694672  0.65484088  0.54353346     0.01900
C3344       C  0.38087238  0.67254778  0.55386080    -0.00500
C3345       C  0.37603954  0.67434514  0.58435983    -0.12200
C3346       C  0.38878308  0.66062559  0.60470923     0.01800
H3347       H  0.42407814  0.62964535  0.55610623     0.14700
H3348       H  0.36373333  0.68790840  0.59242675     0.14700
C3349       C  0.38478299  0.66473240  0.63603319     0.36400
C3350       C  0.40271358  0.65225568  0.51240598     0.36300
N3351       N  0.38143396  0.66808238  0.66108628    -0.44000
N3352       N  0.40745185  0.65002745  0.48751557    -0.44000
C3353       C  0.40466696  0.30796566  0.54538830    -0.00400
C3354       C  0.42818530  0.30445936  0.55478519    -0.12200
C3355       C  0.44132982  0.32310803  0.56725565     0.01900
C3356       C  0.43098318  0.34602571  0.57068227    -0.00500
C3357       C  0.40791456  0.34985379  0.55991238    -0.12200
C3358       C  0.39478302  0.33124081  0.54732878     0.01800
H3359       H  0.43625909  0.28688344  0.55305820     0.14700
H3360       H  0.39977516  0.36737949  0.56202210     0.14700
C3361       C  0.37136308  0.33680968  0.53634421     0.36400
C3362       C  0.46548274  0.31814160  0.57595370     0.36300
N3363       N  0.35264099  0.34138263  0.52749457    -0.44000
N3364       N  0.48483255  0.31405001  0.58285020    -0.44000
C3365       C  0.41212063  0.39396451  0.68244323    -0.00400
C3366       C  0.39050507  0.38449802  0.67261222    -0.12200
C3367       C  0.37586432  0.37187228  0.69211426     0.01900
C3368       C  0.38257434  0.36931586  0.72198168    -0.00500
C3369       C  0.40227005  0.38188802  0.73263927    -0.12200
C3370       C  0.41727979  0.39391870  0.71303243     0.01800
H3371       H  0.38627828  0.38475358  0.64914949     0.14700
H3372       H  0.40741930  0.38009830  0.75570370     0.14700
C3373       C  0.43868944  0.40457601  0.72444106     0.36400
C3374       C  0.35487320  0.36054212  0.68065744     0.36300
N3375       N  0.45580525  0.41311627  0.73368228    -0.44000
N3376       N  0.33796501  0.35175767  0.67121610    -0.44000
C3377       C  0.46012608  0.49414226  0.62297103    -0.00400
C3378       C  0.44601963  0.50201889  0.64694241    -0.12200
C3379       C  0.44545207  0.52627354  0.65508422     0.01900
C3380       C  0.45916168  0.54283489  0.63893830    -0.00500
C3381       C  0.47170039  0.53503092  0.61364996    -0.12200
C3382       C  0.47226408  0.51102334  0.60556225     0.01800
H3383       H  0.43653763  0.48909834  0.66026015     0.14700
H3384       H  0.48177239  0.54770352  0.60060026     0.14700
C3385       C  0.48567660  0.50412190  0.57938675     0.36400
C3386       C  0.43209990  0.53335622  0.68115458     0.36300
N3387       N  0.49637918  0.49857232  0.55842446    -0.44000
N3388       N  0.42137334  0.53907161  0.70202943    -0.44000
C3389       C  0.57761163  0.68879177  0.94989255    -0.00400
C3390       C  0.59879717  0.68416438  0.96525994    -0.12200
C3391       C  0.61206322  0.70273286  0.97781863     0.01900
C3392       C  0.60408152  0.72659552  0.97538054    -0.00500
C3393       C  0.58235910  0.73108668  0.96137092    -0.12200
C3394       C  0.56924174  0.71263461  0.94844904     0.01800
H3395       H  0.60543358  0.66596009  0.96680722     0.14700
H3396       H  0.57440975  0.74977111  0.45689922     0.14700
C3397       C  0.54719864  0.71881345  0.93410201     0.36400
C3398       C  0.63342820  0.69671787  0.99375758     0.36300
N3399       N  0.53018769  0.72382924  0.41679857    -0.44000
N3400       N  0.65046827  0.69183846  0.00666751    -0.44000
C3401       C  0.60036232  0.64163402  0.84366328    -0.00400
C3402       C  0.61809891  0.65650399  0.85512178    -0.12200
C3403       C  0.63115864  0.67129265  0.83627028     0.01900
C3404       C  0.62705522  0.67053983  0.80544135    -0.00500
C3405       C  0.61198653  0.65301885  0.79374642    -0.12200
C3406       C  0.59832843  0.63882994  0.81264684     0.01800
H3407       H  0.61975321  0.65873594  0.87896804     0.14700
H3408       H  0.60887441  0.65223566  0.77001189     0.14700
C3409       C  0.58088169  0.62307881  0.79985892     0.36400
C3410       C  0.64729938  0.68832124  0.84917774     0.36300
N3411       N  0.56692241  0.61045832  0.78958432    -0.44000
N3412       N  0.66022421  0.70194145  0.85959959    -0.44000
C3413       C  0.46352731  0.67206761  0.92213392    -0.00400
C3414       C  0.46764116  0.69302162  0.93848252    -0.12200
C3415       C  0.44886675  0.70592099  0.95142996     0.01900
C3416       C  0.42521436  0.69791478  0.94807608    -0.00500
C3417       C  0.42103503  0.67782918  0.93006774    -0.12200
C3418       C  0.43982465  0.66486649  0.91727078     0.01800
H3419       H  0.48569547  0.69897738  0.94202487     0.14700
H3420       H  0.40303222  0.67160839  0.92684001     0.14700
C3421       C  0.43413423  0.64434507  0.89914760     0.36400
C3422       C  0.45458959  0.72728187  0.96794397     0.36300
N3423       N  0.42963537  0.63125395  0.38173271    -0.44000
N3424       N  0.45931293  0.74435502  0.98117673    -0.44000
C3425       C  0.51945507  0.60520586  0.50376778    -0.00400
C3426       C  0.53844238  0.60901235  0.52351842    -0.12200
C3427       C  0.53428803  0.61300127  0.55389602     0.01900
C3428       C  0.51082685  0.61347221  0.56473068    -0.00500
C3429       C  0.49209548  0.60812372  0.54562330    -0.12200
C3430       C  0.49611650  0.60367087  0.51555416     0.01800
H3431       H  0.55647458  0.61002287  0.51510288     0.14700
H3432       H  0.47405492  0.60785281  0.55423684     0.14700
C3433       C  0.47270409  0.61074136  0.99282716     0.36400
C3434       C  0.55410642  0.61806386  0.57306971     0.36300
N3435       N  0.45646554  0.61179657  0.97724537    -0.44000
N3436       N  0.56997904  0.62209773  0.58847306    -0.44000
C3437       C  0.49374945  0.61590746  0.81290320    -0.00400
C3438       C  0.50348905  0.59633233  0.79749045    -0.12200
C3439       C  0.49695482  0.59137487  0.76821428     0.01900
C3440       C  0.48022014  0.60618782  0.75394505    -0.00500
C3441       C  0.46973040  0.62519245  0.76998122    -0.12200
C3442       C  0.47653966  0.63029593  0.79910975     0.01800
H3443       H  0.51692473  0.58538370  0.80801344     0.14700
H3444       H  0.45706601  0.63692261  0.75925127     0.14700
C3445       C  0.46579471  0.65046859  0.81426451     0.36400
C3446       C  0.50795894  0.57123712  0.75333230     0.36300
N3447       N  0.45723910  0.66666653  0.82637742    -0.44000
N3448       N  0.51685135  0.55511091  0.74145733    -0.44000
C3449       C  0.42743209  0.34142910  0.82411446    -0.00400
C3450       C  0.42375701  0.36130300  0.84276936    -0.12200
C3451       C  0.44284783  0.37332145  0.85569206     0.01900
C3452       C  0.46641197  0.36553985  0.85008296    -0.00500
C3453       C  0.47005174  0.34481059  0.83291844    -0.12200
C3454       C  0.45089774  0.33277392  0.81993809     0.01800
H3455       H  0.40588568  0.36799023  0.84663039     0.14700
H3456       H  0.48798437  0.33839765  0.82880657     0.14700
C3457       C  0.45588300  0.31144597  0.80279880     0.36400
C3458       C  0.43761902  0.39345429  0.87489060     0.36300
N3459       N  0.45987203  0.29430268  0.78915763    -0.44000
N3460       N  0.43342076  0.40954967  0.89030920    -0.44000
C3461       C  0.52776443  0.42368602  0.76655392    -0.00400
C3462       C  0.52774086  0.44362427  0.74795002    -0.12200
C3463       C  0.52265555  0.44123676  0.71753585     0.01900
C3464       C  0.51762095  0.41839382  0.70535697    -0.00500
C3465       C  0.51902159  0.39842060  0.72416456    -0.12200
C3466       C  0.52382530  0.40090865  0.75437600     0.01800
H3467       H  0.53091992  0.46116161  0.75738826     0.14700
H3468       H  0.51572805  0.38065826  0.71550572     0.14700
C3469       C  0.52430087  0.37977593  0.77262255     0.36400
C3470       C  0.52190064  0.46264968  0.69992890     0.36300
N3471       N  0.52466192  0.36286796  0.78723025    -0.44000
N3472       N  0.52133260  0.47988563  0.68592930    -0.44000
C3473       C  0.48318972  0.43163091  0.51565327    -0.00400
C3474       C  0.50212664  0.44457902  0.50335310    -0.12200
C3475       C  0.50672711  0.44425738  0.97307159     0.01900
C3476       C  0.49489293  0.42771394  0.95474534    -0.00500
C3477       C  0.47585036  0.41480549  0.96633549    -0.12200
C3478       C  0.46919503  0.41714799  0.99615673     0.01800
H3479       H  0.51305725  0.45557610  0.51761903     0.14700
H3480       H  0.46658508  0.40224435  0.95216265     0.14700
C3481       C  0.44969797  0.40274928  0.00645733     0.36400
C3482       C  0.52593287  0.45858107  0.96174663     0.36300
N3483       N  0.43387643  0.39116096  0.01400189    -0.44000
N3484       N  0.54128886  0.47010843  0.95266764    -0.44000
C3485       C  0.54741060  0.54289535  0.88838202    -0.00400
C3486       C  0.56591768  0.52833583  0.89902010    -0.12200
C3487       C  0.56746616  0.50401215  0.89085322     0.01900
C3488       C  0.55074533  0.49426073  0.87085970    -0.00500
C3489       C  0.53361981  0.50946820  0.85860995    -0.12200
C3490       C  0.53136847  0.53312178  0.86760133     0.01800
H3491       H  0.57830318  0.53556613  0.91502111     0.14700
H3492       H  0.52090197  0.50252071  0.84278610     0.14700
C3493       C  0.51141550  0.54622823  0.85585232     0.36400
C3494       C  0.58522816  0.48928028  0.90482176     0.36300
N3495       N  0.49480239  0.55567028  0.84641931    -0.44000
N3496       N  0.59937686  0.47742503  0.91614916    -0.44000
C3497       C  0.60938673  0.23050695  0.53678336    -0.00400
C3498       C  0.58758394  0.23478061  0.55114066    -0.12200
C3499       C  0.57472435  0.21620636  0.56404560     0.01900
C3500       C  0.58387271  0.19255249  0.56319223    -0.00500
C3501       C  0.60498359  0.18819342  0.54709406    -0.12200
C3502       C  0.61751616  0.20673675  0.53364681     0.01800
H3503       H  0.58083308  0.25289480  0.55317279     0.14700
H3504       H  0.61207493  0.17020733  0.54531068     0.14700
C3505       C  0.63831467  0.20070670  0.51618170     0.36400
C3506       C  0.55239224  0.22233169  0.57814755     0.36300
N3507       N  0.65484310  0.19585137  0.50195745    -0.44000
N3508       N  0.53448695  0.22738210  0.58931802    -0.44000
C3509       C  0.60137875  0.39570798  0.93185468    -0.00400
C3510       C  0.62150984  0.38404768  0.92014603    -0.12200
C3511       C  0.63634104  0.37063397  0.93848833     0.01900
C3512       C  0.63177382  0.36984430  0.96925193    -0.00500
C3513       C  0.61389129  0.38452044  0.98141394    -0.12200
C3514       C  0.59830588  0.39696963  0.96294368     0.01800
H3515       H  0.62407667  0.38300540  0.89627440     0.14700
H3516       H  0.61020863  0.38391913  0.00507838     0.14700
C3517       C  0.57821151  0.40909824  0.97631475     0.36400
C3518       C  0.65468443  0.35614587  0.92486034     0.36300
N3519       N  0.56208584  0.41858005  0.98730740    -0.44000
N3520       N  0.66923352  0.34459415  0.91349654    -0.44000
C3521       C  0.54716585  0.36620369  0.59179704    -0.00400
C3522       C  0.54379057  0.34585593  0.57402430    -0.12200
C3523       C  0.56314169  0.33363012  0.56126782     0.01900
C3524       C  0.58655912  0.34151470  0.56670712    -0.00500
C3525       C  0.58989553  0.36137701  0.58535820    -0.12200
C3526       C  0.57057693  0.37381359  0.59765096     0.01800
H3527       H  0.52592369  0.33989480  0.56933226     0.14700
H3528       H  0.60770622  0.36771548  0.58970451     0.14700
C3529       C  0.57541228  0.39420771  0.61640291     0.36400
C3530       C  0.55834663  0.31303458  0.54287425     0.36300
N3531       N  0.57933391  0.41058164  0.63133399    -0.44000
N3532       N  0.55443124  0.29658592  0.52806922    -0.44000
C3533       C  0.77929229  0.31816471  0.99495575    -0.00400
C3534       C  0.77496300  0.33282345  0.52001986    -0.12200
C3535       C  0.75116493  0.33304118  0.52989059     0.01900
C3536       C  0.73433226  0.31867288  0.51530745    -0.00500
C3537       C  0.74123548  0.30551240  0.49018437    -0.12200
C3538       C  0.76220417  0.30346653  0.98133093     0.01800
H3539       H  0.78824690  0.34263556  0.53233822     0.14700
H3540       H  0.72634146  0.29123619  0.98222096     0.14700
C3541       C  0.76814972  0.28757959  0.95693487     0.36400
C3542       C  0.74485295  0.34641800  0.55625877     0.36300
N3543       N  0.77285592  0.27489491  0.93737037    -0.44000
N3544       N  0.73975691  0.35706767  0.57747022    -0.44000
C3545       C  0.90816191  0.23245259  0.96621405    -0.00400
C3546       C  0.92112593  0.21777151  0.98536516    -0.12200
C3547       C  0.93432511  0.19836555  0.97429118     0.01900
C3548       C  0.93466091  0.19358806  0.94349526    -0.00500
C3549       C  0.92275878  0.20921820  0.92427750    -0.12200
C3550       C  0.90951012  0.22847495  0.93537203     0.01800
H3551       H  0.92449994  0.22177262  0.50771751     0.14700
H3552       H  0.92328533  0.20602781  0.90049267     0.14700
C3553       C  0.89807678  0.24432429  0.91464886     0.36400
C3554       C  0.95121938  0.18434257  0.49309674     0.36300
N3555       N  0.88924636  0.25711959  0.89788905    -0.44000
N3556       N  0.96330496  0.17392191  0.50922704    -0.44000
C3557       C  0.88203276  0.36837708  0.54940468    -0.00400
C3558       C  0.87680319  0.36630063  0.57973291    -0.12200
C3559       C  0.88885213  0.38013869  0.60072840     0.01900
C3560       C  0.90731725  0.39532624  0.59128147    -0.00500
C3561       C  0.91027305  0.39961538  0.56085115    -0.12200
C3562       C  0.89746163  0.38657556  0.53985447     0.01800
H3563       H  0.86464970  0.35259348  0.58713402     0.14700
H3564       H  0.92409223  0.41164185  0.55344569     0.14700
C3565       C  0.90267579  0.39022758  0.50879349     0.36400
C3566       C  0.88383479  0.37630604  0.63180753     0.36300
N3567       N  0.90682239  0.39334474  0.48394009    -0.44000
N3568       N  0.87974356  0.37330904  0.65670762    -0.44000
C3569       C  0.92835209  0.34292171  0.94601492    -0.00400
C3570       C  0.92526072  0.36505534  0.93212938    -0.12200
C3571       C  0.94466175  0.37792071  0.92140006     0.01900
C3572       C  0.96788367  0.36835776  0.92367440    -0.00500
C3573       C  0.97086516  0.34559560  0.93606602    -0.12200
C3574       C  0.95146350  0.33293558  0.94737523     0.01800
H3575       H  0.90763869  0.37283540  0.93059612     0.14700
H3576       H  0.98851615  0.33787196  0.93760811     0.14700
C3577       C  0.95584113  0.30963364  0.95981977     0.36400
C3578       C  0.94003178  0.40082772  0.90803540     0.36300
N3579       N  0.95943293  0.29096289  0.96973070    -0.44000
N3580       N  0.93626403  0.41921795  0.89745658    -0.44000
C3581       C  0.66837097  0.28376440  0.62435903    -0.00400
C3582       C  0.67013434  0.30172265  0.64631911    -0.12200
C3583       C  0.66597727  0.29673567  0.67645770     0.01900
C3584       C  0.65985027  0.27342949  0.68510108    -0.00500
C3585       C  0.65868472  0.25543299  0.66348072    -0.12200
C3586       C  0.66288906  0.26018564  0.63357159     0.01800
H3587       H  0.67415992  0.31987540  0.63993576     0.14700
H3588       H  0.65430798  0.23737186  0.67004161     0.14700
C3589       C  0.66060673  0.24032825  0.61315574     0.36400
C3590       C  0.66668119  0.31605586  0.69776237     0.36300
N3591       N  0.65872363  0.22442330  0.59684111    -0.44000
N3592       N  0.66711104  0.33154307  0.71486276    -0.44000
C3593       C  0.67303204  0.24584808  0.87583219    -0.00400
C3594       C  0.68697121  0.26470654  0.88668722    -0.12200
C3595       C  0.68442404  0.27288798  0.91599334     0.01900
C3596       C  0.66763168  0.26214474  0.93486154    -0.00500
C3597       C  0.65451600  0.24272653  0.92461616    -0.12200
C3598       C  0.65703351  0.23443379  0.89551463     0.01800
H3599       H  0.69922041  0.27371124  0.87192378     0.14700
H3600       H  0.64161826  0.23446837  0.93924653     0.14700
C3601       C  0.64152530  0.21538533  0.88627708     0.36400
C3602       C  0.69783489  0.29344757  0.92529072     0.36300
N3603       N  0.62896226  0.20012751  0.87925386    -0.44000
N3604       N  0.70856284  0.31008990  0.93224953    -0.44000
C3605       C  0.63415833  0.16915984  0.71494463    -0.00400
C3606       C  0.63858363  0.17442494  0.68510941    -0.12200
C3607       C  0.62669457  0.16215654  0.66262219     0.01900
C3608       C  0.60993048  0.14456439  0.67007793    -0.00500
C3609       C  0.60757513  0.13743845  0.69970495    -0.12200
C3610       C  0.61978636  0.14950431  0.72221881     0.01800
H3611       H  0.64956042  0.18961312  0.67950999     0.14700
H3612       H  0.59458198  0.12401819  0.70550803     0.14700
C3613       C  0.61529378  0.14316196  0.75275005     0.36400
C3614       C  0.62988965  0.16982937  0.63234376     0.36300
N3615       N  0.61174167  0.13797993  0.77719326    -0.44000
N3616       N  0.63253738  0.17599117  0.60810192    -0.44000
C3617       C  0.58562025  0.19529481  0.82374391    -0.00400
C3618       C  0.58884908  0.17246452  0.83590619    -0.12200
C3619       C  0.56980003  0.15961368  0.84778623     0.01900
C3620       C  0.54652851  0.16936073  0.84736900    -0.00500
C3621       C  0.54355473  0.19283416  0.83713835    -0.12200
C3622       C  0.56268642  0.20585782  0.82567382     0.01800
H3623       H  0.60630191  0.16419962  0.83550522     0.14700
H3624       H  0.52602933  0.20095455  0.83734340     0.14700
C3625       C  0.55797466  0.22998415  0.81613546     0.36400
C3626       C  0.57494757  0.13655225  0.86043066     0.36300
N3627       N  0.55411199  0.24933168  0.80863918    -0.44000
N3628       N  0.57919158  0.11813112  0.87065081    -0.44000
C3629       C  0.58267591  0.34518521  0.82908766    -0.00400
C3630       C  0.58530728  0.34378223  0.79804880    -0.12200
C3631       C  0.59797220  0.32492328  0.78465684     0.01900
C3632       C  0.60851792  0.30724822  0.80243728    -0.00500
C3633       C  0.60628082  0.30876982  0.83337408    -0.12200
C3634       C  0.59343745  0.32740444  0.84682369     0.01800
H3635       H  0.57750205  0.35747502  0.78421191     0.14700
H3636       H  0.61466357  0.29532111  0.84709224     0.14700
C3637       C  0.59265791  0.32836954  0.87888679     0.36400
C3638       C  0.60085472  0.32462172  0.75278821     0.36300
N3639       N  0.59211828  0.32907173  0.90456818    -0.44000
N3640       N  0.60331329  0.32441594  0.72726456    -0.44000
C3641       C  0.85256470  0.25759984  0.57688808    -0.00400
C3642       C  0.83302288  0.26646947  0.59303007    -0.12200
C3643       C  0.82965958  0.26020796  0.62284013     0.01900
C3644       C  0.84577019  0.24440986  0.63661952    -0.00500
C3645       C  0.86419662  0.23414389  0.61970676    -0.12200
C3646       C  0.86785794  0.24080733  0.59017376     0.01800
H3647       H  0.82107458  0.27920786  0.58280271     0.14700
H3648       H  0.87661650  0.22194079  0.63007865     0.14700
C3649       C  0.88765159  0.23042449  0.57411546     0.36400
C3650       C  0.80975471  0.27038190  0.63893004     0.36300
N3651       N  0.90354260  0.22198009  0.56142111    -0.44000
N3652       N  0.79380423  0.27847356  0.65188591    -0.44000
C3653       C  0.84538089  0.27829345  0.82697115    -0.00400
C3654       C  0.83662371  0.26114309  0.84649989    -0.12200
C3655       C  0.83306665  0.26650892  0.87654165     0.01900
C3656       C  0.83925532  0.28935494  0.88779540    -0.00500
C3657       C  0.84613393  0.30708721  0.86746549    -0.12200
C3658       C  0.84906519  0.30172868  0.83718550     0.01800
H3659       H  0.83330802  0.24319399  0.83838850     0.14700
H3660       H  0.85042095  0.32485373  0.87535077     0.14700
C3661       C  0.85685579  0.32018009  0.81722308     0.36400
C3662       C  0.82348305  0.24793773  0.89510621     0.36300
N3663       N  0.86289637  0.33498535  0.80111602    -0.44000
N3664       N  0.81572628  0.23298455  0.90979512    -0.44000
C3665       C  0.78161900  0.21859966  0.74270155    -0.00400
C3666       C  0.76516729  0.23030886  0.72464695    -0.12200
C3667       C  0.74107379  0.23085888  0.73194683     0.01900
C3668       C  0.73290568  0.21975708  0.75817088    -0.00500
C3669       C  0.74909089  0.20633162  0.77504373    -0.12200
C3670       C  0.77340496  0.20572458  0.76750617     0.01800
H3671       H  0.77135425  0.23990536  0.70525159     0.14700
H3672       H  0.74304955  0.19762794  0.79512027     0.14700
C3673       C  0.78979383  0.19351820  0.78677788     0.36400
C3674       C  0.72524119  0.24340605  0.71225604     0.36300
N3675       N  0.80301947  0.18378889  0.80217823    -0.44000
N3676       N  0.71280408  0.25350454  0.69623777    -0.44000
C3677       C  0.88246523  0.17017779  0.80154684    -0.00400
C3678       C  0.87820304  0.17311709  0.83203926    -0.12200
C3679       C  0.89138815  0.16021539  0.85285350     0.01900
C3680       C  0.90985834  0.14480823  0.84304916    -0.00500
C3681       C  0.91223142  0.13994537  0.81259020    -0.12200
C3682       C  0.89841397  0.15218083  0.79183072     0.01800
H3683       H  0.86592580  0.18688376  0.83960839     0.14700
H3684       H  0.92614875  0.12791216  0.80489479     0.14700
C3685       C  0.90309659  0.14804551  0.76064907     0.36400
C3686       C  0.88726579  0.16511447  0.88397670     0.36300
N3687       N  0.90687060  0.14466401  0.73569003    -0.44000
N3688       N  0.88372152  0.16895190  0.90888811    -0.44000
C3689       C  0.93338840  0.19614356  0.70163726    -0.00400
C3690       C  0.93484956  0.19250660  0.67078637    -0.12200
C3691       C  0.95414449  0.18013369  0.65809761     0.01900
C3692       C  0.97196436  0.17065918  0.67654024    -0.00500
C3693       C  0.97067819  0.17453137  0.70724893    -0.12200
C3694       C  0.95178737  0.18735216  0.71989601     0.01800
H3695       H  0.92077182  0.19910619  0.65664362     0.14700
H3696       H  0.98438008  0.16722482  0.72145254     0.14700
C3697       C  0.95105037  0.18988779  0.75184449     0.36400
C3698       C  0.95468564  0.17632154  0.62636548     0.36300
N3699       N  0.95045823  0.19188536  0.77742825    -0.44000
N3700       N  0.95515207  0.17323960  0.60093915    -0.44000
C3701       C  0.90758594  0.30701648  0.71693002    -0.00400
C3702       C  0.90832596  0.30936522  0.68602368    -0.12200
C3703       C  0.92109092  0.32776165  0.67270570     0.01900
C3704       C  0.93273463  0.34489603  0.69062650    -0.00500
C3705       C  0.93223907  0.34227378  0.72165139    -0.12200
C3706       C  0.92015348  0.32324018  0.73485185     0.01800
H3707       H  0.89887957  0.29668136  0.67220723     0.14700
H3708       H  0.94129023  0.35513100  0.73560547     0.14700
C3709       C  0.92026206  0.32113826  0.76676697     0.36400
C3710       C  0.92111251  0.32893624  0.64066086     0.36300
N3711       N  0.92044757  0.31940969  0.79235008    -0.44000
N3712       N  0.92114964  0.32968061  0.61498759    -0.44000
loop_ 
_geom_bond_atom_site_label_1 
_geom_bond_atom_site_label_2 
_geom_bond_distance 
_geom_bond_site_symmetry_2 
_ccdc_geom_bond_type 
Fe1          O17   2.067       .  S
Fe1           O7   2.047       .  S
Fe1          O14   2.064       .  S
Fe1           O6   2.055       .  S
Fe1          O12   1.974       .  S
Fe2           O5   2.062       .  S
Fe2           O9   2.057       .  S
Fe2          O13   2.062       .  S
Fe2          O18   2.054       .  S
Fe2          O12   1.969       .  S
Fe3          O21   2.078       .  S
Fe3           O8   2.080       .  S
Fe3          O15   2.075       .  S
Fe3           O4   2.094       .  S
Fe3          O12   1.980       .  S
O4           C11   1.274       .  A
O5           C19   1.269       .  A
O6           C11   1.269       .  A
O7           C10   1.265       .  A
O8           C20   1.271       .  A
O9           C22   1.266       .  A
C10          O15   1.270       .  A
C10        C1788   1.473       .  S
C11        C1809   1.484       .  S
O13          C16   1.267       .  A
O14          C16   1.266       .  A
C16        C1797   1.468       .  S
O17          C22   1.269       .  A
O18          C20   1.268       .  A
C19          O21   1.272       .  A
C19        C1833   1.487       .  S
C20        C1821   1.476       .  S
C22        C1845   1.470       .  S
Fe23         O39   2.056       .  S
Fe23         O29   2.069       .  S
Fe23         O36   2.086       .  S
Fe23         O28   2.048       .  S
Fe23         O34   1.966       .  S
Fe24         O27   2.048       .  S
Fe24         O31   2.073       .  S
Fe24         O35   2.038       .  S
Fe24         O40   2.066       .  S
Fe24         O34   1.960       .  S
Fe25         O43   2.098       .  S
Fe25         O30   2.061       .  S
Fe25         O37   2.047       .  S
Fe25         O26   2.099       .  S
Fe25         O34   1.972       .  S
O26          C33   1.274       .  A
O27          C41   1.267       .  A
O28          C33   1.267       .  A
O29          C32   1.271       .  A
O30          C42   1.265       .  A
O31          C44   1.266       .  A
C32          O37   1.266       .  A
C32        C1737   1.484       .  S
C33        C1812   1.490       .  S
O35          C38   1.268       .  A
O36          C38   1.273       .  A
C38        C1728   1.478       .  S
O39          C44   1.264       .  A
O40          C42   1.268       .  A
C41          O43   1.278       .  A
C41        C1761   1.498       .  S
C42        C1749   1.467       .  S
C44        C1776   1.473       .  S
Fe45         O51   2.056       .  S
Fe45         O58   2.070       .  S
Fe45         O50   2.047       .  S
Fe45       O1917   2.064       .  S
Fe45         O56   1.963       .  S
Fe46         O49   2.053       .  S
Fe46         O53   2.063       .  S
Fe46       O1913   2.054   1_554  S
Fe46       O1918   2.063   1_554  S
Fe46       O1912   1.967   1_554  S
Fe47         O52   2.066       .  S
Fe47         O59   2.079       .  S
Fe47         O48   2.080       .  S
Fe47       O1921   2.074       .  S
Fe47         O56   1.976       .  S
O48          C55   1.271       .  A
O49          C63   1.268       .  A
O50          C55   1.266       .  A
O51          C54   1.269       .  A
O52          C64   1.271       .  A
O53          C66   1.267       .  A
C54          O59   1.270       .  A
C54        C1677   1.478       .  S
C55        C1800   1.484       .  S
O56       Fe1902   1.966       .  S
O57       Fe1902   2.055       .  S
O57          C60   1.266       .  A
O58          C60   1.269       .  A
C60        C1689   1.469       .  S
O61       Fe1901   2.067   1_554  S
O61          C66   1.267       .  A
O62       Fe1902   2.070       .  S
O62          C64   1.270       .  A
C63          O65   1.271       .  A
C63        C1701   1.474       .  S
C64        C1713   1.488       .  S
O65       Fe1903   2.080   1_554  S
C66        C1785   1.474       .  S
Fe67         O73   2.055       .  S
Fe67         O80   2.081       .  S
Fe67         O72   2.028       .  S
Fe67       O1939   2.052   1_554  S
Fe67         O78   1.941       .  S
Fe68         O79   2.059       .  S
Fe68         O84   2.074       .  S
Fe68       O1927   2.048   1_554  S
Fe68       O1931   2.076   1_554  S
Fe68         O78   1.938       .  S
Fe69         O87   2.090       .  S
Fe69         O74   2.062       .  S
Fe69         O81   2.078       .  S
Fe69         O70   2.098       .  S
Fe69         O78   1.956       .  S
O70          C77   1.277       .  A
O71       Fe1924   2.042       .  S
O71          C85   1.266       .  A
O72          C77   1.265       .  A
O73          C76   1.267       .  A
O74          C86   1.271       .  A
O75       Fe1924   2.077       .  S
O75          C88   1.271       .  A
C76          O81   1.270       .  A
C76        C1680   1.475       .  S
C77        C1725   1.491       .  S
O79          C82   1.269       .  A
O80          C82   1.271       .  A
C82        C1641   1.490       .  S
O83       Fe1923   2.054       .  S
O83          C88   1.265       .  A
O84          C86   1.271       .  A
C85        O1943   1.276       .  A
C85        C1656   1.475       .  S
C86        C1668   1.488       .  S
O87        C1941   1.274   1_554  A
C88        C1740   1.467       .  S
Fe89        O105   2.060       .  S
Fe89         O95   2.055       .  S
Fe89        O102   2.069       .  S
Fe89         O94   2.052       .  S
Fe89        O100   1.942       .  S
Fe90         O93   2.060       .  S
Fe90         O97   2.084       .  S
Fe90        O101   2.069       .  S
Fe90        O106   2.075       .  S
Fe90        O100   1.941       .  S
Fe91        O109   2.080       .  S
Fe91         O96   2.067       .  S
Fe91        O103   2.081       .  S
Fe91         O92   2.098       .  S
Fe91        O100   1.952       .  S
O92          C99   1.276       .  A
O93         C107   1.270       .  A
O94          C99   1.271       .  A
O95          C98   1.267       .  A
O96         C108   1.272       .  A
O97         C110   1.275       .  A
C98         O103   1.269       .  A
C98        C1632   1.495       .  S
C99        C1605   1.473       .  S
O101        C104   1.268       .  A
O102        C104   1.266       .  A
C104       C1596   1.481       .  S
O105        C110   1.271       .  A
O106        C108   1.272       .  A
C107        O109   1.273       .  A
C107       C1653   1.479       .  S
C108       C1773   1.484       .  S
C110       C1620   1.471       .  S
Fe111       O127   2.047       .  S
Fe111       O117   2.060       .  S
Fe111       O124   2.070       .  S
Fe111       O116   2.040       .  S
Fe111       O122   1.951       .  S
Fe112       O115   2.047       .  S
Fe112       O119   2.075       .  S
Fe112       O123   2.060       .  S
Fe112       O128   2.068       .  S
Fe112       O122   1.953       .  S
Fe113       O131   2.076       .  S
Fe113       O118   2.074       .  S
Fe113       O125   2.083       .  S
Fe113       O114   2.086       .  S
Fe113       O122   1.968       .  S
O114        C121   1.274       .  A
O115        C129   1.268       .  A
O116        C121   1.267       .  A
O117        C120   1.267       .  A
O118        C130   1.273       .  A
O119        C132   1.270       .  A
C120        O125   1.271       .  A
C120       C1629   1.488       .  S
C121       C3425   1.488       .  S
O123        C126   1.267       .  A
O124        C126   1.269       .  A
C126       C1557   1.482       .  S
O127        C132   1.265       .  A
O128        C130   1.270       .  A
C129        O131   1.270       .  A
C129       C1545   1.468       .  S
C130       C1533   1.492       .  S
C132       C1581   1.467       .  S
Fe133       O149   2.070       .  S
Fe133       O139   2.071       .  S
Fe133       O146   2.081       .  S
Fe133       O138   2.055       .  S
Fe133       O144   1.970       .  S
Fe134       O137   2.056       .  S
Fe134       O141   2.058       .  S
Fe134       O145   2.059       .  S
Fe134       O150   2.053       .  S
Fe134       O144   1.960       .  S
Fe135       O153   2.059       .  S
Fe135       O140   2.070       .  S
Fe135       O147   2.075       .  S
Fe135       O136   2.068       .  S
Fe135       O144   1.975       .  S
O136        C143   1.266       .  A
O137        C151   1.265       .  A
O138        C143   1.266       .  A
O139        C142   1.274       .  A
O140        C152   1.270       .  A
O141        C154   1.266       .  A
C142        O147   1.273       .  A
C142       C1617   1.485       .  S
C143       C1521   1.474       .  S
O145        C148   1.270       .  A
O146        C148   1.273       .  A
C148       C1608   1.497       .  S
O149        C154   1.268       .  A
O150        C152   1.269       .  A
C151        O153   1.268       .  A
C151       C1500   1.484       .  S
C152       C1509   1.470       .  S
C154       C1665   1.478       .  S
Fe155       O171   2.053       .  S
Fe155       O161   2.064       .  S
Fe155       O168   2.072       .  S
Fe155       O160   2.037       .  S
Fe155       O166   1.982       .  S
Fe156       O159   2.049       .  S
Fe156       O163   2.058       .  S
Fe156       O167   2.055       .  S
Fe156       O172   2.046       .  S
Fe156       O166   1.963       .  S
Fe157       O175   2.074       .  S
Fe157       O162   2.065       .  S
Fe157       O169   2.052       .  S
Fe157       O158   2.082       .  S
Fe157       O166   1.987       .  S
O158        C165   1.269       .  A
O159        C173   1.268       .  A
O160        C165   1.263       .  A
O161        C164   1.270       .  A
O162        C174   1.267       .  A
O163        C176   1.264       .  A
C164        O169   1.269       .  A
C164       C1584   1.475       .  S
C165       C1524   1.475       .  S
O167        C170   1.270       .  A
O168        C170   1.270       .  A
C170       C1572   1.475       .  S
O171        C176   1.264       .  A
O172        C174   1.266       .  A
C173        O175   1.271       .  A
C173       C1473   1.490       .  S
C174       C1485   1.463       .  S
C176       C1461   1.476       .  S
Fe177       O193   2.072       .  S
Fe177       O183   2.043       .  S
Fe177       O182   2.064       .  S
Fe177      O2046   2.050       .  S
Fe177       O188   1.944       .  S
Fe178       O189   2.077       .  S
Fe178       O194   2.053       .  S
Fe178      O2037   2.071   1_554  S
Fe178      O2041   2.062   1_554  S
Fe178      O2044   1.947   1_554  S
Fe179       O197   2.066       .  S
Fe179       O191   2.095       .  S
Fe179       O180   2.080       .  S
Fe179      O2040   2.085       .  S
Fe179       O188   1.958       .  S
O180        C187   1.271       .  A
O181      Fe2034   2.073       .  S
O181        C195   1.273       .  A
O182        C187   1.268       .  A
O183        C186   1.268       .  A
O184      Fe2035   2.071   1_554  S
O184        C196   1.269       .  A
O185      Fe2034   2.055       .  S
O185        C198   1.266       .  A
C186        O191   1.273       .  A
C186       C1425   1.472       .  S
C187       C1449   1.485       .  S
O188      Fe2034   1.941       .  S
O189        C192   1.272       .  A
O190      Fe2033   2.054   1_554  S
O190        C192   1.268       .  A
C192       C1437   1.469       .  S
O193        C198   1.267       .  A
O194        C196   1.268       .  A
C195        O197   1.274       .  A
C195       C1560   1.488       .  S
C196       C1488   1.470       .  S
C198       C1413   1.485       .  S
Fe199       O215   2.045       .  S
Fe199       O205   2.075       .  S
Fe199       O204   2.035       .  S
Fe199      O2068   2.089   1_554  S
Fe199       O210   1.969       .  S
Fe200       O203   2.054       .  S
Fe200       O207   2.077       .  S
Fe200      O2067   2.043   1_554  S
Fe200      O2072   2.061   1_554  S
Fe200       O210   1.963       .  S
Fe201       O219   2.073       .  S
Fe201       O206   2.064       .  S
Fe201       O213   2.065       .  S
Fe201       O202   2.083       .  S
Fe201       O210   1.978       .  S
O202        C209   1.269       .  A
O203        C217   1.269       .  A
O204        C209   1.264       .  A
O205        C208   1.272       .  A
O206       C2074   1.268   1_554  A
O207        C220   1.267       .  A
C208        O213   1.271       .  A
C208       C1404   1.481       .  S
C209       C1452   1.477       .  S
O211      Fe2056   2.060       .  S
O211        C214   1.269       .  A
O212      Fe2055   2.082       .  S
O212        C214   1.272       .  A
C214       C1389   1.473       .  S
O215        C220   1.263       .  A
O216      Fe2056   2.063       .  S
O216        C218   1.269       .  A
C217        O219   1.270       .  A
C217       C1377   1.492       .  S
C218       O2062   1.269       .  A
C218       C1365   1.470       .  S
C220       C1353   1.475       .  S
Fe221       O237   2.073       .  S
Fe221       O227   2.045       .  S
Fe221       O234   2.064       .  S
Fe221       O226   2.070       .  S
Fe221       O232   1.984       .  S
Fe222       O225   2.045       .  S
Fe222       O229   2.052       .  S
Fe222       O233   2.052       .  S
Fe222       O238   2.051       .  S
Fe222       O232   1.964       .  S
Fe223       O241   2.078       .  S
Fe223       O228   2.087       .  S
Fe223       O235   2.091       .  S
Fe223       O224   2.063       .  S
Fe223       O232   1.989       .  S
O224        C231   1.272       .  A
O225        C239   1.268       .  A
O226        C231   1.273       .  A
O227        C230   1.263       .  A
O228        C240   1.272       .  A
O229        C242   1.269       .  A
C230        O235   1.271       .  A
C230       C1341   1.480       .  S
C231       C1440   1.482       .  S
O233        C236   1.264       .  A
O234        C236   1.266       .  A
C236       C1476   1.471       .  S
O237        C242   1.269       .  A
O238        C240   1.264       .  A
C239        O241   1.272       .  A
C239       C1317   1.470       .  S
C240       C1332   1.501       .  S
C242       C1428   1.494       .  S
Fe243       O259   2.061       .  S
Fe243       O249   2.070       .  S
Fe243       O256   2.086       .  S
Fe243       O248   2.051       .  S
Fe243       O254   1.961       .  S
Fe244       O247   2.044       .  S
Fe244       O251   2.078       .  S
Fe244       O255   2.042       .  S
Fe244       O260   2.071       .  S
Fe244       O254   1.953       .  S
Fe245       O263   2.089       .  S
Fe245       O250   2.059       .  S
Fe245       O257   2.073       .  S
Fe245       O246   2.097       .  S
Fe245       O254   1.964       .  S
O246        C253   1.277       .  A
O247        C261   1.269       .  A
O248        C253   1.270       .  A
O249        C252   1.269       .  A
O250        C262   1.268       .  A
O251        C264   1.272       .  A
C252        O257   1.267       .  A
C252       C1344   1.479       .  S
C253       C1392   1.491       .  S
O255        C258   1.264       .  A
O256        C258   1.271       .  A
C258       C1308   1.472       .  S
O259        C264   1.268       .  A
O260        C262   1.268       .  A
C261        O263   1.275       .  A
C261       C1284   1.476       .  S
C262       C1293   1.477       .  S
C264       C1401   1.479       .  S
Fe265       O281   2.067   1_455  S
Fe265       O271   2.050       .  S
Fe265       O278   2.064       .  S
Fe265       O270   2.058       .  S
Fe265       O276   1.960       .  S
Fe266       O269   2.061       .  S
Fe266       O273   2.065       .  S
Fe266       O277   2.067       .  S
Fe266       O282   2.051       .  S
Fe266       O276   1.949       .  S
Fe267       O285   2.066       .  S
Fe267       O272   2.074       .  S
Fe267       O279   2.072       .  S
Fe267       O268   2.068       .  S
Fe267       O276   1.971       .  S
O268        C275   1.267       .  A
O269        C283   1.270       .  A
O270        C275   1.268       .  A
O271        C274   1.269       .  A
O272        C284   1.269       .  A
O273        C286   1.268   1_455  A
C274        O279   1.272       .  A
C274       C3080   1.476       .  S
C275       C1245   1.472       .  S
O277        C280   1.270       .  A
O278        C280   1.270       .  A
C280       C1233   1.480       .  S
O281        C286   1.268       .  A
O282        C284   1.268       .  A
C283        O285   1.269       .  A
C283       C1260   1.491       .  S
C284       C1272   1.466       .  S
C286       C1716   1.489       .  S
Fe287       O303   2.045   1_455  S
Fe287       O293   2.070       .  S
Fe287       O300   2.076       .  S
Fe287       O292   2.034       .  S
Fe287       O298   1.966       .  S
Fe288       O291   2.061       .  S
Fe288       O295   2.091       .  S
Fe288       O299   2.065       .  S
Fe288       O304   2.067       .  S
Fe288       O298   1.961       .  S
Fe289       O307   2.068       .  S
Fe289       O294   2.066       .  S
Fe289       O301   2.058       .  S
Fe289       O290   2.083       .  S
Fe289       O298   1.979       .  S
O290        C297   1.269       .  A
O291        C305   1.272       .  A
O292        C297   1.264       .  A
O293        C296   1.270       .  A
O294        C306   1.267       .  A
O295        C308   1.271   1_455  A
C296        O301   1.269       .  A
C296       C1200   1.481       .  S
C297       C1248   1.477       .  S
O299        C302   1.271       .  A
O300        C302   1.271       .  A
C302       C1212   1.472       .  S
O303        C308   1.263       .  A
O304        C306   1.269       .  A
C305        O307   1.271       .  A
C305       C1305   1.485       .  S
C306       C1368   1.470       .  S
C308       C1185   1.495       .  S
Fe309       O325   2.051       .  S
Fe309       O315   2.070   1_455  S
Fe309       O322   2.089       .  S
Fe309       O314   2.033   1_455  S
Fe309       O320   1.953   1_455  S
Fe310       O313   2.058       .  S
Fe310       O317   2.070       .  S
Fe310       O321   2.064   1_655  S
Fe310       O326   2.067       .  S
Fe310       O320   1.946       .  S
Fe311       O329   2.087       .  S
Fe311       O316   2.066       .  S
Fe311       O323   2.072       .  S
Fe311       O312   2.093       .  S
Fe311       O320   1.961       .  S
O312        C319   1.274       .  A
O313        C327   1.272       .  A
O314        C319   1.266       .  A
O315        C318   1.269       .  A
O316        C328   1.270       .  A
O317        C330   1.269   1_655  A
C318        O323   1.269       .  A
C318       C1161   1.473       .  S
C319       C1236   1.482       .  S
O321        C324   1.270       .  A
O322        C324   1.274       .  A
C324       C1173   1.494       .  S
O325        C330   1.264       .  A
O326        C328   1.268       .  A
C327        O329   1.274       .  A
C327       C1704   1.478       .  S
C328       C1848   1.480       .  S
C330       C1221   1.467       .  S
Fe331       O347   2.060   1_655  S
Fe331       O337   2.069       .  S
Fe331       O344   2.082   1_655  S
Fe331       O336   2.050       .  S
Fe331       O342   1.961       .  S
Fe332       O335   2.045       .  S
Fe332       O339   2.073       .  S
Fe332       O343   2.047   1_655  S
Fe332       O348   2.063       .  S
Fe332       O342   1.954       .  S
Fe333       O351   2.092       .  S
Fe333       O338   2.065       .  S
Fe333       O345   2.074       .  S
Fe333       O334   2.090       .  S
Fe333       O342   1.968       .  S
O334        C341   1.275       .  A
O335        C349   1.269       .  A
O336        C341   1.269       .  A
O337        C340   1.268       .  A
O338        C350   1.268       .  A
O339        C352   1.269   1_655  A
C340        O345   1.268       .  A
C340       C1164   1.476       .  S
C341       C1209   1.495       .  S
O343        C346   1.266       .  A
O344        C346   1.272       .  A
C346       C1380   1.479       .  S
O347        C352   1.267       .  A
O348        C350   1.266       .  A
C349        O351   1.276       .  A
C349       C1149   1.476       .  S
C350       C1137   1.494       .  S
C352       C1197   1.476       .  S
Fe353       O369   2.064       .  S
Fe353       O359   2.068       .  S
Fe353       O366   2.076       .  S
Fe353       O358   2.050       .  S
Fe353       O364   1.978       .  S
Fe354       O357   2.055       .  S
Fe354       O361   2.053       .  S
Fe354       O365   2.056       .  S
Fe354       O370   2.049       .  S
Fe354       O364   1.964       .  S
Fe355       O373   2.075       .  S
Fe355       O360   2.075       .  S
Fe355       O367   2.080       .  S
Fe355       O356   2.087       .  S
Fe355       O364   1.980       .  S
O356        C363   1.269       .  A
O357        C371   1.265       .  A
O358        C363   1.264       .  A
O359        C362   1.273       .  A
O360        C372   1.271       .  A
O361        C374   1.265       .  A
C362        O367   1.274       .  A
C362       C1101   1.481       .  S
C363       C1125   1.483       .  S
O365        C368   1.270       .  A
O366        C368   1.271       .  A
C368       C1113   1.495       .  S
O369        C374   1.267       .  A
O370        C372   1.269       .  A
C371        O373   1.271       .  A
C371       C1644   1.495       .  S
C372       C1752   1.468       .  S
C374       C1092   1.478       .  S
Fe375       O391   2.080       .  S
Fe375       O381   2.032       .  S
Fe375       O388   2.042       .  S
Fe375       O380   2.054       .  S
Fe375       O386   1.967       .  S
Fe376       O379   2.073       .  S
Fe376       O383   2.064       .  S
Fe376       O387   2.084       .  S
Fe376       O392   2.048       .  S
Fe376       O386   1.960       .  S
Fe377       O395   2.073       .  S
Fe377       O382   2.081       .  S
Fe377       O389   2.084       .  S
Fe377       O378   2.082       .  S
Fe377       O386   1.983       .  S
O378        C385   1.269       .  A
O379        C393   1.270       .  A
O380        C385   1.265       .  A
O381        C384   1.267       .  A
O382        C394   1.273       .  A
O383        C396   1.268       .  A
C384        O389   1.273       .  A
C384       C1077   1.474       .  S
C385       C1128   1.482       .  S
O387        C390   1.273       .  A
O388        C390   1.264       .  A
C390       C1065   1.473       .  S
O391        C396   1.269       .  A
O392        C394   1.270       .  A
C393        O395   1.271       .  A
C393       C1041   1.498       .  S
C394       C1053   1.473       .  S
C396       C1329   1.491       .  S
Fe397       O413   2.060       .  S
Fe397       O403   2.073       .  S
Fe397       O410   2.078       .  S
Fe397       O402   2.045       .  S
Fe397       O408   1.941       .  S
Fe398       O401   2.054       .  S
Fe398       O405   2.084       .  S
Fe398       O409   2.065       .  S
Fe398       O414   2.084       .  S
Fe398       O408   1.939       .  S
Fe399       O417   2.083       .  S
Fe399       O404   2.055       .  S
Fe399       O411   2.067       .  S
Fe399       O400   2.098       .  S
Fe399       O408   1.956       .  S
O400        C407   1.274       .  A
O401        C415   1.269       .  A
O402        C407   1.268       .  A
O403        C406   1.271       .  A
O404        C416   1.269       .  A
O405        C418   1.275       .  A
C406        O411   1.268       .  A
C406       C1032   1.481       .  S
C407       C1116   1.477       .  S
O409        C412   1.269       .  A
O410        C412   1.270       .  A
C412       C1764   1.494       .  S
O413        C418   1.269       .  A
O414        C416   1.275       .  A
C415        O417   1.271       .  A
C415       C1017   1.474       .  S
C416       C1008   1.492       .  S
C418       C1104   1.474       .  S
Fe419       O435   2.070       .  S
Fe419       O425   2.050       .  S
Fe419       O432   2.060       .  S
Fe419       O424   2.072       .  S
Fe419       O430   1.984       .  S
Fe420       O423   2.057       .  S
Fe420       O427   2.045       .  S
Fe420       O431   2.060       .  S
Fe420       O436   2.044       .  S
Fe420       O430   1.968       .  S
Fe421       O439   2.066       .  S
Fe421       O426   2.079       .  S
Fe421       O433   2.087       .  S
Fe421       O422   2.057       .  S
Fe421       O430   1.989       .  S
O422        C429   1.269       .  A
O423        C437   1.268       .  A
O424        C429   1.271       .  A
O425        C428   1.265       .  A
O426        C438   1.272       .  A
O427        C440   1.267       .  A
C428        O433   1.270       .  A
C428       C1029   1.485       .  S
C429       C2924   1.478       .  S
O431        C434   1.266       .  A
O432        C434   1.265       .  A
C434        C993   1.481       .  S
O435        C440   1.271       .  A
O436        C438   1.265       .  A
C437        O439   1.267       .  A
C437       C1320   1.467       .  S
C438       C1416   1.492       .  S
C440       C1080   1.483       .  S
Fe441       O457   2.064       .  S
Fe441       O447   2.032       .  S
Fe441       O446   2.051       .  S
Fe441      O2310   2.042   1_554  S
Fe441       O452   1.959       .  S
Fe442       O445   2.078       .  S
Fe442       O449   2.065       .  S
Fe442      O2309   2.083   1_554  S
Fe442      O2314   2.053   1_554  S
Fe442       O452   1.951       .  S
Fe443       O461   2.056       .  S
Fe443       O448   2.087       .  S
Fe443       O455   2.093       .  S
Fe443       O444   2.068       .  S
Fe443       O452   1.964       .  S
O444        C451   1.265       .  A
O445        C459   1.271       .  A
O446        C451   1.264       .  A
O447        C450   1.267       .  A
O448       C2316   1.273   1_554  A
O449        C462   1.268       .  A
C450        O455   1.278       .  A
C450        C933   1.489       .  S
C451        C960   1.471       .  S
O453      Fe2298   2.086       .  S
O453        C456   1.273       .  A
O454      Fe2297   2.046       .  S
O454        C456   1.267       .  A
C456        C945   1.485       .  S
O457        C462   1.266       .  A
O458      Fe2298   2.051       .  S
O458        C460   1.271       .  A
C459        O461   1.266       .  A
C459        C984   1.493       .  S
C460       O2304   1.274       .  A
C460        C969   1.469       .  S
C462       C1140   1.481       .  S
Fe463       O479   2.071       .  S
Fe463       O469   2.038       .  S
Fe463       O468   2.053       .  S
Fe463      O2332   2.050       .  S
Fe463       O474   1.962       .  S
Fe464       O475   2.054       .  S
Fe464       O480   2.064       .  S
Fe464      O2323   2.048   1_554  S
Fe464      O2327   2.066   1_554  S
Fe464      O2330   1.960   1_554  S
Fe465       O483   2.077       .  S
Fe465       O477   2.078       .  S
Fe465       O466   2.081       .  S
Fe465      O2326   2.073       .  S
Fe465       O474   1.979       .  S
O466        C473   1.269       .  A
O467      Fe2320   2.051       .  S
O467        C481   1.265       .  A
O468        C473   1.266       .  A
O469        C472   1.268       .  A
O470      Fe2321   2.065   1_554  S
O470        C482   1.269       .  A
O471      Fe2320   2.067       .  S
O471        C484   1.269       .  A
C472        O477   1.273       .  A
C472        C921   1.469       .  S
C473        C957   1.490       .  S
O474      Fe2320   1.954       .  S
O475        C478   1.270       .  A
O476      Fe2319   2.057   1_554  S
O476        C478   1.271       .  A
C478        C909   1.476       .  S
O479        C484   1.268       .  A
O480        C482   1.271       .  A
C481        O483   1.271       .  A
C481        C996   1.489       .  S
C482       C1056   1.466       .  S
C484       C1536   1.491       .  S
Fe485       O501   2.068       .  S
Fe485       O491   2.035       .  S
Fe485       O498   2.041       .  S
Fe485       O490   2.063       .  S
Fe485       O496   1.966       .  S
Fe486       O489   2.066       .  S
Fe486       O493   2.054       .  S
Fe486       O497   2.075       .  S
Fe486       O502   2.057       .  S
Fe486       O496   1.959       .  S
Fe487       O505   2.068       .  S
Fe487       O492   2.089       .  S
Fe487       O499   2.097       .  S
Fe487       O488   2.063       .  S
Fe487       O496   1.979       .  S
O488        C495   1.271       .  A
O489        C503   1.271       .  A
O490        C495   1.272       .  A
O491        C494   1.261       .  A
O492        C504   1.274       .  A
O493        C506   1.270       .  A
C494        O499   1.271       .  A
C494        C885   1.487       .  S
C495        C948   1.470       .  S
O497        C500   1.269       .  A
O498        C500   1.261       .  A
C500        C897   1.494       .  S
O501        C506   1.270       .  A
O502        C504   1.267       .  A
C503        O505   1.270       .  A
C503       C1152   1.466       .  S
C504       C1188   1.492       .  S
C506        C936   1.476       .  S
Fe507       O523   2.051       .  S
Fe507       O513   2.070       .  S
Fe507       O520   2.084       .  S
Fe507       O512   2.030       .  S
Fe507       O518   1.951       .  S
Fe508       O511   2.057       .  S
Fe508       O515   2.074       .  S
Fe508       O519   2.069       .  S
Fe508       O524   2.068       .  S
Fe508       O518   1.941       .  S
Fe509       O527   2.074       .  S
Fe509       O514   2.056       .  S
Fe509       O521   2.071       .  S
Fe509       O510   2.081       .  S
Fe509       O518   1.957       .  S
O510        C517   1.275       .  A
O511        C525   1.272       .  A
O512        C517   1.269       .  A
O513        C516   1.268       .  A
O514        C526   1.267       .  A
O515        C528   1.272       .  A
C516        O521   1.266       .  A
C516        C888   1.480       .  S
C517        C912   1.478       .  S
O519        C522   1.270       .  A
O520        C522   1.270       .  A
C522       C1044   1.498       .  S
O523        C528   1.269       .  A
O524        C526   1.269       .  A
C525        O527   1.272       .  A
C525       C1548   1.467       .  S
C526       C1464   1.484       .  S
C528        C924   1.478       .  S
Fe529       O545   2.085       .  S
Fe529       O535   2.049       .  S
Fe529       O542   2.060       .  S
Fe529       O534   2.064       .  S
Fe529       O540   1.945       .  S
Fe530       O533   2.072       .  S
Fe530       O537   2.051       .  S
Fe530       O541   2.076       .  S
Fe530       O546   2.049       .  S
Fe530       O540   1.939       .  S
Fe531       O549   2.065       .  S
Fe531       O536   2.083       .  S
Fe531       O543   2.082       .  S
Fe531       O532   2.074       .  S
Fe531       O540   1.953       .  S
O532        C539   1.270       .  A
O533        C547   1.270       .  A
O534        C539   1.270       .  A
O535        C538   1.269       .  A
O536        C548   1.272       .  A
O537        C550   1.267       .  A
C538        O543   1.274       .  A
C538        C852   1.480       .  S
C539        C873   1.477       .  S
O541        C544   1.271       .  A
O542        C544   1.267       .  A
C544        C861   1.476       .  S
O545        C550   1.273       .  A
O546        C548   1.268       .  A
C547        O549   1.271       .  A
C547       C1593   1.489       .  S
C548       C1512   1.467       .  S
C550       C1005   1.477       .  S
Fe551       O567   2.053       .  S
Fe551       O557   2.068       .  S
Fe551       O564   2.070       .  S
Fe551       O556   2.037       .  S
Fe551       O562   1.980       .  S
Fe552       O555   2.064       .  S
Fe552       O559   2.068       .  S
Fe552       O563   2.056       .  S
Fe552       O568   2.057       .  S
Fe552       O562   1.970       .  S
Fe553       O571   2.078       .  S
Fe553       O558   2.065       .  S
Fe553       O565   2.057       .  S
Fe553       O554   2.082       .  S
Fe553       O562   1.988       .  S
O554        C561   1.268       .  A
O555        C569   1.268       .  A
O556        C561   1.262       .  A
O557        C560   1.271       .  A
O558        C570   1.268       .  A
O559        C572   1.268       .  A
C560        O565   1.271       .  A
C560        C837   1.475       .  S
C561        C876   1.479       .  S
O563        C566   1.268       .  A
O564        C566   1.270       .  A
C566        C825   1.489       .  S
O567        C572   1.265       .  A
O568        C570   1.270       .  A
C569        O571   1.270       .  A
C569       C1176   1.501       .  S
C570       C1269   1.467       .  S
C572        C816   1.488       .  S
Fe573       O579   2.057       .  S
Fe573       O586   2.071       .  S
Fe573       O578   2.052       .  S
Fe573      O2445   2.058   1_554  S
Fe573       O584   1.961       .  S
Fe574       O585   2.055       .  S
Fe574       O590   2.065       .  S
Fe574      O2433   2.054   1_554  S
Fe574      O2437   2.070   1_554  S
Fe574       O584   1.956       .  S
Fe575       O593   2.081       .  S
Fe575       O580   2.056       .  S
Fe575       O587   2.077       .  S
Fe575       O576   2.092       .  S
Fe575       O584   1.964       .  S
O576        C583   1.276       .  A
O577      Fe2430   2.055       .  S
O577        C591   1.270       .  A
O578        C583   1.269       .  A
O579        C582   1.266       .  A
O580        C592   1.269       .  A
O581      Fe2430   2.063       .  S
O581        C594   1.267       .  A
C582        O587   1.268       .  A
C582        C801   1.479       .  S
C583        C864   1.477       .  S
O585        C588   1.267       .  A
O586        C588   1.269       .  A
C588       C1497   1.486       .  S
O589      Fe2429   2.064       .  S
O589        C594   1.267       .  A
O590        C592   1.268       .  A
C591       O2449   1.272       .  A
C591       C1020   1.475       .  S
C592       C1089   1.487       .  S
O593       C2447   1.273   1_554  A
C594        C849   1.467       .  S
Fe595       O601   2.065       .  S
Fe595       O608   2.084       .  S
Fe595       O600   2.037       .  S
Fe595      O2467   2.042       .  S
Fe595       O606   1.955       .  S
Fe596       O599   2.051       .  S
Fe596       O603   2.077       .  S
Fe596      O2463   2.056   1_554  S
Fe596      O2468   2.070   1_554  S
Fe596      O2462   1.947   1_554  S
Fe597       O602   2.070       .  S
Fe597       O609   2.081       .  S
Fe597       O598   2.089       .  S
Fe597      O2471   2.086       .  S
Fe597       O606   1.967       .  S
O598        C605   1.273       .  A
O599        C613   1.270       .  A
O600        C605   1.267       .  A
O601        C604   1.270       .  A
O602        C614   1.272       .  A
O603        C616   1.271       .  A
C604        O609   1.271       .  A
C604        C804   1.483       .  S
C605        C828   1.479       .  S
O606      Fe2452   1.948       .  S
O607      Fe2452   2.052       .  S
O607        C610   1.267       .  A
O608        C610   1.271       .  A
C610       C1257   1.480       .  S
O611      Fe2451   2.051   1_554  S
O611        C616   1.265       .  A
O612      Fe2452   2.070       .  S
O612        C614   1.269       .  A
C613        O615   1.274       .  A
C613        C777   1.474       .  S
C614        C789   1.493       .  S
O615      Fe2453   2.091   1_554  S
C616        C840   1.470       .  S
Fe617       O633   2.086       .  S
Fe617       O623   2.058       .  S
Fe617       O630   2.068       .  S
Fe617       O622   2.070   1_455  S
Fe617       O628   1.950   1_455  S
Fe618       O621   2.071       .  S
Fe618       O625   2.057   1_655  S
Fe618       O629   2.069   1_655  S
Fe618       O634   2.056       .  S
Fe618       O628   1.941       .  S
Fe619       O637   2.063       .  S
Fe619       O624   2.088       .  S
Fe619       O631   2.086       .  S
Fe619       O620   2.066       .  S
Fe619       O628   1.955       .  S
O620        C627   1.270       .  A
O621        C635   1.270       .  A
O622        C627   1.272       .  A
O623        C626   1.271   1_455  A
O624        C636   1.273       .  A
O625        C638   1.269       .  A
C626        O631   1.272       .  A
C626       C2597   1.491       .  S
C627        C768   1.477       .  S
O629        C632   1.271       .  A
O630        C632   1.269       .  A
C632        C753   1.482       .  S
O633        C638   1.273       .  A
O634        C636   1.269       .  A
C635        O637   1.269       .  A
C635       C1692   1.475       .  S
C636       C1824   1.481       .  S
C638        C792   1.480       .  S
Fe639       O655   2.041   1_655  S
Fe639       O645   2.087       .  S
Fe639       O652   2.092   1_655  S
Fe639       O644   2.031       .  S
Fe639       O650   1.960       .  S
Fe640       O643   2.044       .  S
Fe640       O647   2.078   1_655  S
Fe640       O651   2.042       .  S
Fe640       O656   2.076       .  S
Fe640       O650   1.955       .  S
Fe641       O659   2.093       .  S
Fe641       O646   2.058       .  S
Fe641       O653   2.053       .  S
Fe641       O642   2.093       .  S
Fe641       O650   1.973       .  S
O642        C649   1.271       .  A
O643        C657   1.265       .  A
O644        C649   1.261       .  A
O645        C648   1.276       .  A
O646        C658   1.267       .  A
O647        C660   1.267       .  A
C648        O653   1.270       .  A
C648        C732   1.484       .  S
C649        C765   1.483       .  S
O651        C654   1.268       .  A
O652        C654   1.276   1_455  A
C654        C717   1.494   1_655  S
O655        C660   1.263       .  A
O656        C658   1.272       .  A
C657        O659   1.274       .  A
C657        C900   1.479       .  S
C658        C972   1.466       .  S
C660       C1296   1.488       .  S
Fe661       O677   2.088       .  S
Fe661       O667   2.039       .  S
Fe661       O674   2.051   1_455  S
Fe661       O666   2.078       .  S
Fe661       O672   1.968       .  S
Fe662       O665   2.058       .  S
Fe662       O669   2.049       .  S
Fe662       O673   2.082       .  S
Fe662       O678   2.058       .  S
Fe662       O672   1.962       .  S
Fe663       O681   2.071       .  S
Fe663       O668   2.081       .  S
Fe663       O675   2.092       .  S
Fe663       O664   2.059       .  S
Fe663       O672   1.974       .  S
O664        C671   1.268       .  A
O665        C679   1.266       .  A
O666        C671   1.270       .  A
O667        C670   1.265       .  A
O668        C680   1.276       .  A
O669        C682   1.268       .  A
C670        O675   1.273       .  A
C670        C705   1.477       .  S
C671        C756   1.479       .  S
O673        C676   1.268   1_455  A
O674        C676   1.264       .  A
C676       C1836   1.475       .  S
O677        C682   1.273       .  A
O678        C680   1.271       .  A
C679        O681   1.267       .  A
C679        C780   1.472       .  S
C680        C813   1.492       .  S
C682        C744   1.472       .  S
Fe683       O699   2.059       .  S
Fe683       O689   2.073       .  S
Fe683       O696   2.090   1_455  S
Fe683       O688   2.035       .  S
Fe683       O694   1.942       .  S
Fe684       O687   2.054       .  S
Fe684       O691   2.077       .  S
Fe684       O695   2.055       .  S
Fe684       O700   2.072       .  S
Fe684       O694   1.935       .  S
Fe685       O703   2.088       .  S
Fe685       O690   2.061       .  S
Fe685       O697   2.066       .  S
Fe685       O686   2.089       .  S
Fe685       O694   1.952       .  S
O686        C693   1.273       .  A
O687        C701   1.270       .  A
O688        C693   1.267       .  A
O689        C692   1.272       .  A
O690        C702   1.268       .  A
O691        C704   1.272       .  A
C692        O697   1.269       .  A
C692        C708   1.474       .  S
C693        C720   1.479       .  S
O695        C698   1.268   1_455  A
O696        C698   1.274       .  A
C698        C981   1.488       .  S
O699        C704   1.267       .  A
O700        C702   1.271       .  A
C701        O703   1.274       .  A
C701       C1281   1.471       .  S
C702       C1356   1.480       .  S
C704        C729   1.473   1_455  S
C705        C706   1.404       .  A
C705        C710   1.411       .  A
C706        C707   1.396       .  A
C706        H711   1.085       .  S
C707        C708   1.409   1_545  A
C707        C714   1.445       .  S
C708        C709   1.405       .  A
C709        C710   1.405   1_565  A
C709        H712   1.085       .  S
C710        C713   1.443       .  S
C713        N715   1.157       .  T
C714        N716   1.157       .  T
C717        C718   1.412       .  A
C717        C722   1.421   1_455  A
C718        C719   1.407       .  A
C718        H723   1.084       .  S
C719       C2576   1.410       .  A
C719        C726   1.443       .  S
C720        C721   1.402   1_455  A
C720       C2575   1.411   1_554  A
C721       C2578   1.392   1_554  A
C721        H724   1.086       .  S
C722       C2577   1.392   1_655  A
C722        C725   1.446       .  S
C725        N727   1.158       .  T
C726        N728   1.157       .  T
C729        C730   1.398       .  A
C729        C734   1.411   1_655  A
C730        C731   1.395       .  A
C730        H735   1.086       .  S
C731        C732   1.417       .  A
C731        C738   1.444       .  S
C732        C733   1.407       .  A
C733        C734   1.405   1_655  A
C733        H736   1.084   1_655  S
C734        C737   1.444       .  S
C737        N739   1.157       .  T
C738        N740   1.157       .  T
C741       C2482   1.492   1_554  S
C741        C742   1.408   1_655  A
C741        C746   1.421       .  A
C742        C743   1.398       .  A
C742       H2603   1.084   1_554  S
C743        C744   1.407       .  A
C743        C750   1.445       .  S
C744        C745   1.400   1_455  A
C745        C746   1.404       .  A
C745        H748   1.085       .  S
C746        C749   1.444       .  S
H747       C2598   1.084       .  S
C749        N751   1.157       .  T
C750        N752   1.157       .  T
C753        C754   1.401       .  A
C753        C758   1.414       .  A
C754        C755   1.393       .  A
C754        H759   1.086       .  S
C755        C756   1.411       .  A
C755        C762   1.442       .  S
C756        C757   1.406       .  A
C757        C758   1.408       .  A
C757        H760   1.085       .  S
C758        C761   1.444       .  S
C761        N763   1.157   1_455  T
C762        N764   1.156       .  T
C765        C766   1.406   1_565  A
C765        C770   1.415   1_565  A
C766        C767   1.407       .  A
C766        H771   1.085       .  S
C767        C768   1.413       .  A
C767        C774   1.443       .  S
C768        C769   1.399       .  A
C769        C770   1.393       .  A
C769        H772   1.086       .  S
C770        C773   1.445   1_545  S
C773        N775   1.157       .  T
C774        N776   1.157       .  T
C777        C778   1.402       .  A
C777        C782   1.412       .  A
C778        C779   1.401       .  A
C778        H783   1.085       .  S
C779        C780   1.410       .  A
C779        C786   1.443       .  S
C780        C781   1.401       .  A
C781        C782   1.400       .  A
C781        H784   1.083       .  S
C782        C785   1.444       .  S
C785        N787   1.157   1_554  T
C786        N788   1.157       .  T
C789        C790   1.408       .  A
C789        C794   1.421       .  A
C790        C791   1.402       .  A
C790        H795   1.084       .  S
C791        C792   1.411       .  A
C791        C798   1.444       .  S
C792        C793   1.401       .  A
C793        C794   1.401       .  A
C793        H796   1.085       .  S
C794        C797   1.445       .  S
C797       N2655   1.158       .  T
C798        N800   1.157       .  T
N799       C2653   1.157       .  T
C801        C806   1.411       .  A
C801       C2658   1.407   1_554  A
C802        C803   1.412       .  A
C802       C2657   1.409       .  A
C802        H807   1.084       .  S
C803        C804   1.412       .  A
C803        C810   1.442       .  S
C804       C2661   1.402       .  A
C805        C806   1.396       .  A
C805       C2660   1.402       .  A
C805        H808   1.085       .  S
C806        C809   1.446       .  S
C809        N811   1.157       .  T
C810        N812   1.157       .  T
C813        C814   1.406       .  A
C813        C818   1.417       .  A
C814        C815   1.398       .  A
C814        H819   1.083       .  S
C815        C816   1.416       .  A
C815        C822   1.446       .  S
C816        C817   1.405       .  A
C817        C818   1.402       .  A
C817        H820   1.084       .  S
C818        C821   1.444       .  S
C821        N823   1.157       .  T
C822        N824   1.157       .  T
C825        C826   1.410       .  A
C825        C830   1.418       .  A
C826        C827   1.406       .  A
C826        H831   1.084       .  S
C827        C828   1.410       .  A
C827        C834   1.443       .  S
C828        C829   1.402       .  A
C829        C830   1.393       .  A
C829        H832   1.086       .  S
C830        C833   1.446       .  S
C833        N835   1.157       .  T
C834        N836   1.157       .  T
C837        C838   1.404       .  A
C837        C842   1.412       .  A
C838        C839   1.395       .  A
C838        H843   1.085       .  S
C839        C840   1.408       .  A
C839        C846   1.445       .  S
C840        C841   1.404       .  A
C841        C842   1.403       .  A
C841        H844   1.085       .  S
C842        C845   1.444       .  S
C845        N847   1.157       .  T
C846        N848   1.157       .  T
C849        C850   1.400       .  A
C849        C854   1.407       .  A
C850        C851   1.400       .  A
C850        H855   1.085       .  S
C851        C852   1.415       .  A
C851        C858   1.444       .  S
C852        C853   1.406       .  A
C853        C854   1.399       .  A
C853        H856   1.085       .  S
C854        C857   1.444       .  S
C857        N859   1.157       .  T
C858        N860   1.157       .  T
C861        C862   1.400       .  A
C861        C866   1.412       .  A
C862        C863   1.396       .  A
C862        H867   1.086       .  S
C863        C864   1.412       .  A
C863        C870   1.441       .  S
C864        C865   1.405       .  A
C865        C866   1.404       .  A
C865        H868   1.085       .  S
C866        C869   1.444       .  S
C869        N871   1.157       .  T
C870        N872   1.156       .  T
C873        C874   1.406       .  A
C873        C878   1.411       .  A
C874        C875   1.408       .  A
C874        H879   1.085       .  S
C875        C876   1.412       .  A
C875        C882   1.443       .  S
C876        C877   1.403       .  A
C877        C878   1.393       .  A
C877        H880   1.086       .  S
C878        C881   1.446       .  S
C881        N883   1.157       .  T
C882        N884   1.157       .  T
C885        C886   1.407       .  A
C885        C890   1.416       .  A
C886        C887   1.409       .  A
C886        H891   1.084       .  S
C887        C888   1.413       .  A
C887        C894   1.443       .  S
C888        C889   1.400       .  A
C889        C890   1.396       .  A
C889        H892   1.085       .  S
C890        C893   1.446       .  S
C893        N895   1.157       .  T
C894        N896   1.157       .  T
C897        C898   1.408       .  A
C897        C902   1.423       .  A
C898        C899   1.400       .  A
C898        H903   1.084       .  S
C899        C900   1.411       .  A
C899        C906   1.444       .  S
C900        C901   1.400       .  A
C901        C902   1.399       .  A
C901        H904   1.085       .  S
C902        C905   1.445       .  S
C905        N907   1.158       .  T
C906        N908   1.157       .  T
C909        C910   1.406       .  A
C909        C914   1.413       .  A
C910        C911   1.398       .  A
C910        H915   1.085       .  S
C911        C912   1.413       .  A
C911        C918   1.444       .  S
C912        C913   1.406       .  A
C913        C914   1.392       .  A
C913        H916   1.085       .  S
C914        C917   1.445       .  S
C917        N919   1.157       .  T
C918        N920   1.157       .  T
C921        C922   1.401       .  A
C921        C926   1.408       .  A
C922        C923   1.391       .  A
C922        H927   1.086       .  S
C923        C924   1.415       .  A
C923        C930   1.446       .  S
C924        C925   1.408       .  A
C925        C926   1.403       .  A
C925        H928   1.085       .  S
C926        C929   1.443       .  S
C929        N931   1.157       .  T
C930        N932   1.158       .  T
C933        C934   1.408       .  A
C933        C938   1.422       .  A
C934        C935   1.402       .  A
C934        H939   1.084       .  S
C935        C936   1.411       .  A
C935        C942   1.444       .  S
C936        C937   1.399       .  A
C937        C938   1.394       .  A
C937        H940   1.085       .  S
C938        C941   1.446       .  S
C941        N943   1.158       .  T
C942        N944   1.157       .  T
C945        C946   1.411       .  A
C945        C950   1.415       .  A
C946        C947   1.403       .  A
C946        H951   1.085       .  S
C947        C948   1.405       .  A
C947        C954   1.443       .  S
C948        C949   1.402       .  A
C949        C950   1.396       .  A
C949        H952   1.086       .  S
C950        C953   1.445       .  S
C953        N955   1.158       .  T
C954        N956   1.157       .  T
C957        C962   1.415       .  A
C957       C2814   1.405       .  A
C958        C959   1.395       .  A
C958       C2813   1.404       .  A
C958        H963   1.085       .  S
C959        C960   1.409       .  A
C959        C966   1.445       .  S
C960       C2817   1.402   1_554  A
C961        C962   1.411       .  A
C961       C2816   1.407       .  A
C961        H964   1.084       .  S
C962        C965   1.443       .  S
C965        N967   1.157       .  T
C966        N968   1.157       .  T
C969        C970   1.405       .  A
C969        C974   1.408       .  A
C970        C971   1.402       .  A
C970       H2831   1.085       .  S
C971        C972   1.407       .  A
C971        C978   1.444       .  S
C972        C973   1.402       .  A
C973        C974   1.398       .  A
C973        H976   1.085       .  S
C974        C977   1.444       .  S
H975       C2826   1.085   1_554  S
C977        N979   1.157       .  T
C978        N980   1.157       .  T
C981        C982   1.404       .  A
C981        C986   1.416       .  A
C982        C983   1.401       .  A
C982        H987   1.085       .  S
C983        C984   1.419       .  A
C983        C990   1.445       .  S
C984        C985   1.406       .  A
C985        C986   1.402       .  A
C985        H988   1.085       .  S
C986        C989   1.445       .  S
C989        N991   1.157   1_655  T
C990        N992   1.157       .  T
C993        C994   1.401       .  A
C993        C998   1.414       .  A
C994        C995   1.399       .  A
C994        H999   1.085       .  S
C995        C996   1.419       .  A
C995       C1002   1.445       .  S
C996        C997   1.406       .  A
C997        C998   1.402       .  A
C997       H1000   1.085       .  S
C998       C1001   1.445       .  S
C1001      N1003   1.157       .  T
C1002      N1004   1.157       .  T
C1005      C1006   1.400       .  A
C1005      C1010   1.411       .  A
C1006      C1007   1.400       .  A
C1006      H1011   1.085       .  S
C1007      C1008   1.420       .  A
C1007      C1014   1.444       .  S
C1008      C1009   1.408       .  A
C1009      C1010   1.400       .  A
C1009      H1012   1.084       .  S
C1010      C1013   1.445       .  S
C1013      N1015   1.157       .  T
C1014      N1016   1.157       .  T
C1017      C1018   1.402       .  A
C1017      C1022   1.413       .  A
C1018      C1019   1.400       .  A
C1018      H1023   1.085       .  S
C1019      C1020   1.413       .  A
C1019      C2882   1.445       .  S
C1020      C1021   1.402       .  A
C1021      C1022   1.400       .  A
C1021      H1024   1.085       .  S
C1022      C1025   1.444       .  S
C1025      N1027   1.157       .  T
C1026      C2875   1.444   1_554  S
C1026      N1028   1.157       .  T
C1029      C1030   1.407   1_565  A
C1029      C1034   1.413   1_565  A
C1030      C1031   1.410       .  A
C1030      H1035   1.085       .  S
C1031      C1032   1.415       .  A
C1031      C1038   1.444       .  S
C1032      C1033   1.398       .  A
C1033      C1034   1.393       .  A
C1033      H1036   1.086       .  S
C1034      C1037   1.441   1_545  S
C1037      N1039   1.156       .  T
C1038      N1040   1.158       .  T
C1041      C1042   1.407       .  A
C1041      C1046   1.418       .  A
C1042      C1043   1.404       .  A
C1042      H1047   1.085       .  S
C1043      C1044   1.418       .  A
C1043      C1050   1.445       .  S
C1044      C1045   1.407       .  A
C1045      C1046   1.404       .  A
C1045      H1048   1.085       .  S
C1046      C1049   1.444       .  S
C1049      N1051   1.157       .  T
C1050      N1052   1.157       .  T
C1053      C1054   1.406       .  A
C1053      C1058   1.411       .  A
C1054      C1055   1.403       .  A
C1054      H1059   1.091       .  S
C1055      C1056   1.407       .  A
C1055      C1062   1.444       .  S
C1056      C1057   1.401       .  A
C1057      C1058   1.395       .  A
C1057      H1060   1.091       .  S
C1058      C1061   1.445       .  S
C1061      N1063   1.157       .  T
C1062      N1064   1.157       .  T
C1065      C1066   1.406       .  A
C1065      C1070   1.408       .  A
C1066      C1067   1.402       .  A
C1066      H1071   1.084       .  S
C1067      C1068   1.410       .  A
C1067      C2930   1.443       .  S
C1068      C2285   1.478   1_554  S
C1068      C1069   1.407       .  A
C1069      C1070   1.396       .  A
C1069      H1072   1.085       .  S
C1070      C1073   1.445       .  S
C1073      N1075   1.157       .  T
C1074      C2923   1.443       .  S
C1074      N1076   1.157       .  T
C1077      C1078   1.402       .  A
C1077      C1082   1.409       .  A
C1078      C1079   1.390       .  A
C1078      H1083   1.086       .  S
C1079      C1080   1.416       .  A
C1079      C1086   1.447       .  S
C1080      C1081   1.410       .  A
C1081      C1082   1.404       .  A
C1081      H1084   1.084       .  S
C1082      C1085   1.443       .  S
C1085      N1087   1.157       .  T
C1086      N1088   1.158       .  T
C1089      C1090   1.407       .  A
C1089      C1094   1.417       .  A
C1090      C1091   1.398       .  A
C1090      H1095   1.085       .  S
C1091      C1092   1.412       .  A
C1091      C1098   1.445       .  S
C1092      C1093   1.402       .  A
C1093      C1094   1.400       .  A
C1093      H1096   1.085       .  S
C1094      C1097   1.444       .  S
C1097      N1099   1.157       .  T
C1098      N1100   1.157       .  T
C1101      C1106   1.413   1_554  A
C1101      C2958   1.406   1_554  A
C1102      C1103   1.403       .  A
C1102      C2957   1.406       .  A
C1102      H1107   1.085       .  S
C1103      C1104   1.410       .  A
C1103      C1110   1.442       .  S
C1104      C1105   1.399       .  A
C1105      C2962   1.398       .  A
C1105      H1108   1.086       .  S
C1106      C2961   1.396       .  A
C1106      C1109   1.441   1_556  S
C1109      N1111   1.156       .  T
C1110      N1112   1.156       .  T
C1113      C1114   1.408       .  A
C1113      C1118   1.420       .  A
C1114      C1115   1.392       .  A
C1114      H1119   1.084       .  S
C1115      C1116   1.408       .  A
C1115      C1122   1.446       .  S
C1116      C1117   1.403       .  A
C1117      C1118   1.409       .  A
C1117      H1120   1.084       .  S
C1118      C1121   1.443       .  S
C1121      N1123   1.157       .  T
C1122      N1124   1.157       .  T
C1125      C1126   1.407       .  A
C1125      C1130   1.411       .  A
C1126      C1127   1.411       .  A
C1126      H1131   1.084       .  S
C1127      C1128   1.412   1_545  A
C1127      C1134   1.443       .  S
C1128      C1129   1.403   1_565  A
C1129      C1130   1.397       .  A
C1129      H1132   1.085   1_545  S
C1130      C1133   1.446       .  S
C1133      N1135   1.157       .  T
C1134      N1136   1.157       .  T
C1137      C1138   1.407       .  A
C1137      C1142   1.421       .  A
C1138      C1139   1.400       .  A
C1138      H1143   1.084       .  S
C1139      C1140   1.413       .  A
C1139      C3002   1.445       .  S
C1140      C1141   1.401       .  A
C1141      C1142   1.400       .  A
C1141      H1144   1.085       .  S
C1142      C1145   1.444       .  S
C1145      N1147   1.157       .  T
C1146      C2995   1.444       .  S
C1146      N1148   1.157       .  T
C1149      C1150   1.406       .  A
C1149      C1154   1.413       .  A
C1150      C1151   1.403       .  A
C1150      H1155   1.085       .  S
C1151      C1152   1.408       .  A
C1151      C1158   1.444       .  S
C1152      C1153   1.400       .  A
C1153      C1154   1.396       .  A
C1153      H1156   1.086       .  S
C1154      C1157   1.444       .  S
C1157      N1159   1.157       .  T
C1158      N1160   1.157       .  T
C1161      C1162   1.400       .  A
C1161      C1166   1.411       .  A
C1162      C1163   1.402       .  A
C1162      H1167   1.085       .  S
C1163      C1164   1.411       .  A
C1163      C1170   1.441       .  S
C1164      C1165   1.402       .  A
C1165      C1166   1.403       .  A
C1165      H1168   1.084       .  S
C1166      C1169   1.444       .  S
C1169      N1171   1.157       .  T
C1170      N1172   1.156       .  T
C1173      C1174   1.406       .  A
C1173      C1178   1.416       .  A
C1174      C1175   1.403       .  A
C1174      H1179   1.085       .  S
C1175      C1176   1.419       .  A
C1175      C1182   1.444       .  S
C1176      C1177   1.410       .  A
C1177      C1178   1.404       .  A
C1177      H1180   1.084       .  S
C1178      C1181   1.445       .  S
C1181      N1183   1.158       .  T
C1182      N1184   1.157       .  T
C1185      C1186   1.407       .  A
C1185      C1190   1.419       .  A
C1186      C1187   1.407       .  A
C1186      H1191   1.085       .  S
C1187      C1188   1.417       .  A
C1187      C1194   1.444       .  S
C1188      C1189   1.404       .  A
C1189      C1190   1.400       .  A
C1189      H1192   1.085       .  S
C1190      C1193   1.445       .  S
C1193      N1195   1.157       .  T
C1194      N1196   1.158       .  T
C1197      C1198   1.402       .  A
C1197      C1202   1.410       .  A
C1198      C1199   1.401       .  A
C1198      H1203   1.083   1_455  S
C1199      C1200   1.413       .  A
C1199      C1206   1.444       .  S
C1200      C1201   1.406       .  A
C1201      C1202   1.399       .  A
C1201      H1204   1.085       .  S
C1202      C1205   1.445       .  S
C1205      N1207   1.157       .  T
C1206      N1208   1.157   1_455  T
C1209      C1214   1.420   1_554  A
C1209      C3066   1.410   1_655  A
C1210      C1211   1.400       .  A
C1210      C3065   1.411   1_455  A
C1210      H1215   1.084       .  S
C1211      C1212   1.407       .  A
C1211      C1218   1.444       .  S
C1212      C1213   1.399   1_455  A
C1213      C3070   1.403       .  A
C1213      H1216   1.085       .  S
C1214      C3069   1.405       .  A
C1214      C1217   1.444   1_556  S
C1217      N1219   1.157       .  T
C1218      N1220   1.157       .  T
C1221      C1222   1.402       .  A
C1221      C1226   1.407       .  A
C1222      C1223   1.401       .  A
C1222      H1227   1.082   1_455  S
C1223      C1224   1.411       .  A
C1223      C1230   1.444   1_454  S
C1224      C2130   1.473   1_554  S
C1224      C1225   1.405       .  A
C1225      C1226   1.393       .  A
C1225      H3084   1.085       .  S
C1226      C1229   1.446       .  S
H1228      C3081   1.085       .  S
C1229      N1231   1.157       .  T
C1230      N1232   1.157       .  T
C1233      C1234   1.407   1_455  A
C1233      C1238   1.413       .  A
C1234      C1235   1.406       .  A
C1234      H1239   1.085       .  S
C1235      C1236   1.413       .  A
C1235      C1242   1.443       .  S
C1236      C1237   1.405   1_655  A
C1237      C1238   1.393       .  A
C1237      H1240   1.086       .  S
C1238      C1241   1.446       .  S
C1241      N1243   1.157       .  T
C1242      N1244   1.157       .  T
C1245      C1246   1.405       .  A
C1245      C1250   1.409       .  A
C1246      C1247   1.406       .  A
C1246      H1251   1.085       .  S
C1247      C1248   1.413       .  A
C1247      C1254   1.443       .  S
C1248      C1249   1.403       .  A
C1249      C1250   1.391       .  A
C1249      H1252   1.086       .  S
C1250      C1253   1.446       .  S
C1253      N1255   1.157       .  T
C1254      N1256   1.157       .  T
C1257      C1258   1.404       .  A
C1257      C1262   1.410       .  A
C1258      C1259   1.404       .  A
C1258      H1263   1.085       .  S
C1259      C1260   1.419       .  A
C1259      C1266   1.444       .  S
C1260      C1261   1.408       .  A
C1261      C1262   1.396       .  A
C1261      H1264   1.085       .  S
C1262      C3121   1.445       .  S
C1265      C3118   1.445       .  S
C1265      N1267   1.157       .  T
C1266      N1268   1.158       .  T
C1269      C1270   1.401       .  A
C1269      C1274   1.409       .  A
C1270      C1271   1.398       .  A
C1270      H1275   1.085       .  S
C1271      C1272   1.410       .  A
C1271      C1278   1.445       .  S
C1272      C1273   1.401       .  A
C1273      C1274   1.399       .  A
C1273      H1276   1.085       .  S
C1274      C1277   1.443       .  S
C1277      N1279   1.157       .  T
C1278      N1280   1.157       .  T
C1281      C1282   1.403       .  A
C1281      C1286   1.409       .  A
C1282      C1283   1.398       .  A
C1282      H1287   1.085       .  S
C1283      C1284   1.413       .  A
C1283      C1290   1.446       .  S
C1284      C1285   1.405       .  A
C1285      C1286   1.402       .  A
C1285      H1288   1.084       .  S
C1286      C1289   1.444       .  S
C1289      N1291   1.157       .  T
C1290      N1292   1.157       .  T
C1293      C1294   1.404       .  A
C1293      C1298   1.409       .  A
C1294      C1295   1.405       .  A
C1294      H1299   1.084       .  S
C1295      C1296   1.416       .  A
C1295      C1302   1.444       .  S
C1296      C1297   1.407       .  A
C1297      C1298   1.396       .  A
C1297      H1300   1.085       .  S
C1298      C1301   1.445       .  S
C1301      N1303   1.157       .  T
C1302      N1304   1.158       .  T
C1305      C1306   1.406       .  A
C1305      C1310   1.418       .  A
C1306      C1307   1.397       .  A
C1306      H1311   1.085       .  S
C1307      C1308   1.409       .  A
C1307      C1314   1.444       .  S
C1308      C1309   1.401       .  A
C1309      C1310   1.401       .  A
C1309      H1312   1.085       .  S
C1310      C1313   1.445       .  S
C1313      N1315   1.157       .  T
C1314      N1316   1.157       .  T
C1317      C1318   1.405       .  A
C1317      C1322   1.410       .  A
C1318      C1319   1.403       .  A
C1318      H1323   1.084       .  S
C1319      C1320   1.407       .  A
C1319      C1326   1.443       .  S
C1320      C1321   1.402       .  A
C1321      C1322   1.397       .  A
C1321      H1324   1.085       .  S
C1322      C1325   1.446       .  S
C1325      N1327   1.157       .  T
C1326      N1328   1.157       .  T
C1329      C1330   1.403       .  A
C1329      C1334   1.415       .  A
C1330      C1331   1.402       .  A
C1330      H1335   1.085       .  S
C1331      C1332   1.423       .  A
C1331      C1338   1.445       .  S
C1332      C1333   1.408       .  A
C1333      C1334   1.405       .  A
C1333      H1336   1.085       .  S
C1334      C1337   1.444       .  S
C1337      N1339   1.157       .  T
C1338      N1340   1.158       .  T
C1341      C1342   1.404       .  A
C1341      C1346   1.412       .  A
C1342      C1343   1.399       .  A
C1342      H1347   1.085       .  S
C1343      C1344   1.410       .  A
C1343      C1350   1.445       .  S
C1344      C1345   1.406       .  A
C1345      C1346   1.408       .  A
C1345      H1348   1.085       .  S
C1346      C1349   1.443       .  S
C1349      N1351   1.157       .  T
C1350      N1352   1.157       .  T
C1353      C1354   1.404       .  A
C1353      C1358   1.410       .  A
C1354      C1355   1.405       .  A
C1354      H1359   1.085       .  S
C1355      C1356   1.414       .  A
C1355      C1362   1.444       .  S
C1356      C1357   1.403       .  A
C1357      C1358   1.394       .  A
C1357      H1360   1.085       .  S
C1358      C1361   1.442       .  S
C1361      N1363   1.156       .  T
C1362      N3220   1.157       .  T
N1364      C3218   1.157       .  T
C1365      C1366   1.401       .  A
C1365      C1370   1.412       .  A
C1366      C1367   1.401       .  A
C1366      H1371   1.085       .  S
C1367      C1368   1.411       .  A
C1367      C1374   1.444       .  S
C1368      C1369   1.399       .  A
C1369      C1370   1.400       .  A
C1369      H1372   1.083       .  S
C1370      C3229   1.443       .  S
C1373      C3226   1.444   1_554  S
C1373      N1375   1.157       .  T
C1374      N1376   1.157       .  T
C1377      C1378   1.408       .  A
C1377      C1382   1.420       .  A
C1378      C1379   1.398       .  A
C1378      H1383   1.084       .  S
C1379      C1380   1.412       .  A
C1379      C1386   1.444       .  S
C1380      C1381   1.401       .  A
C1381      C1382   1.400       .  A
C1381      H1384   1.085       .  S
C1382      C1385   1.444       .  S
C1385      N1387   1.157       .  T
C1386      N1388   1.157   1_455  T
C1389      C1390   1.399       .  A
C1389      C1394   1.408       .  A
C1390      C1391   1.400       .  A
C1390      H1395   1.085       .  S
C1391      C1392   1.418       .  A
C1391      C1398   1.445       .  S
C1392      C1393   1.409       .  A
C1393      C1394   1.405       .  A
C1393      H1396   1.084       .  S
C1394      C1397   1.444       .  S
C1397      N1399   1.157       .  T
C1398      N1400   1.157       .  T
C1401      C1402   1.401       .  A
C1401      C1406   1.412       .  A
C1402      C1403   1.397       .  A
C1402      H1407   1.085       .  S
C1403      C1404   1.414       .  A
C1403      C1410   1.443       .  S
C1404      C1405   1.405       .  A
C1405      C1406   1.404       .  A
C1405      H1408   1.085       .  S
C1406      C1409   1.444       .  S
C1409      N1411   1.157       .  T
C1410      N1412   1.156       .  T
C1413      C1414   1.402       .  A
C1413      C1418   1.415       .  A
C1414      C1415   1.398       .  A
C1414      H1419   1.085       .  S
C1415      C1416   1.421       .  A
C1415      C1422   1.445       .  S
C1416      C1417   1.407       .  A
C1417      C1418   1.401       .  A
C1417      H1420   1.084       .  S
C1418      C1421   1.445       .  S
C1421      N1423   1.157       .  T
C1422      N1424   1.157       .  T
C1425      C1426   1.402       .  A
C1425      C1430   1.406       .  A
C1426      C1427   1.408       .  A
C1426      H1431   1.085       .  S
C1427      C1428   1.421       .  A
C1427      C1434   1.443       .  S
C1428      C1429   1.408       .  A
C1429      C1430   1.391       .  A
C1429      H1432   1.084       .  S
C1430      C1433   1.446       .  S
C1433      N1435   1.157       .  T
C1434      N1436   1.157       .  T
C1437      C1438   1.402       .  A
C1437      C1442   1.407       .  A
C1438      C1439   1.401       .  A
C1438      H1443   1.084       .  S
C1439      C1440   1.414       .  A
C1439      C1446   1.444       .  S
C1440      C1441   1.408       .  A
C1441      C1442   1.398       .  A
C1441      H1444   1.084       .  S
C1442      C1445   1.445       .  S
C1445      N1447   1.157       .  T
C1446      N1448   1.157       .  T
C1449      C1450   1.408       .  A
C1449      C3310   1.416       .  A
C1450      C3307   1.411       .  A
C1450      H1455   1.084       .  S
C1451      C1452   1.412       .  A
C1451      C3306   1.410   1_554  A
C1451      C1458   1.443   1_554  S
C1452      C1453   1.398       .  A
C1453      C1454   1.389       .  A
C1453      H1456   1.086       .  S
C1454      C3305   1.414       .  A
C1454      C1457   1.444       .  S
C1457      N1459   1.157       .  T
C1458      N1460   1.157       .  T
C1461      C1462   1.401       .  A
C1461      C1466   1.412       .  A
C1462      C1463   1.399       .  A
C1462      H1467   1.086       .  S
C1463      C1464   1.417       .  A
C1463      C1470   1.445       .  S
C1464      C1465   1.406       .  A
C1465      C1466   1.400       .  A
C1465      H1468   1.085       .  S
C1466      C1469   1.445       .  S
C1469      N1471   1.157       .  T
C1470      N1472   1.157       .  T
C1473      C1474   1.410       .  A
C1473      C1478   1.418       .  A
C1474      C1475   1.397       .  A
C1474      H1479   1.084       .  S
C1475      C1476   1.406       .  A
C1475      C1482   1.445       .  S
C1476      C1477   1.401       .  A
C1477      C1478   1.401       .  A
C1477      H1480   1.085       .  S
C1478      C1481   1.444       .  S
C1481      N1483   1.157       .  T
C1482      N1484   1.157       .  T
C1485      C1486   1.399       .  A
C1485      C1490   1.411       .  A
C1486      C1487   1.398       .  A
C1486      H1491   1.086       .  S
C1487      C1488   1.413       .  A
C1487      C1494   1.444       .  S
C1488      C1489   1.401       .  A
C1489      C1490   1.398       .  A
C1489      H1492   1.085       .  S
C1490      C1493   1.445       .  S
C1493      N1495   1.157       .  T
C1494      N1496   1.157   1_554  T
C1497      C1498   1.406       .  A
C1497      C1502   1.416       .  A
C1498      C1499   1.400       .  A
C1498      H1503   1.085       .  S
C1499      C1500   1.415       .  A
C1499      C1506   1.445       .  S
C1500      C1501   1.404       .  A
C1501      C1502   1.398       .  A
C1501      H1504   1.085       .  S
C1502      C1505   1.445       .  S
C1505      N1507   1.157       .  T
C1506      N1508   1.157       .  T
C1509      C1510   1.405       .  A
C1509      C1514   1.409       .  A
C1510      C1511   1.400       .  A
C1510      H1515   1.085       .  S
C1511      C1512   1.408       .  A
C1511      C1518   1.444       .  S
C1512      C1513   1.403       .  A
C1513      C1514   1.398       .  A
C1513      H1516   1.085       .  S
C1514      C1517   1.445       .  S
C1517      N1519   1.157       .  T
C1518      N1520   1.157       .  T
C1521      C1522   1.405       .  A
C1521      C1526   1.410       .  A
C1522      C1523   1.407       .  A
C1522      H1527   1.085       .  S
C1523      C1524   1.412       .  A
C1523      C1530   1.443       .  S
C1524      C1525   1.403       .  A
C1525      C1526   1.393       .  A
C1525      H1528   1.086       .  S
C1526      C1529   1.446       .  S
C1529      N1531   1.157       .  T
C1530      N1532   1.157       .  T
C1533      C1534   1.405       .  A
C1533      C1538   1.418       .  A
C1534      C1535   1.403       .  A
C1534      H1539   1.083       .  S
C1535      C1536   1.417       .  A
C1535      C1542   1.444       .  S
C1536      C1537   1.405       .  A
C1537      C1538   1.402       .  A
C1537      H3396   1.083       .  S
C1538      C1541   1.445       .  S
H1540      C3393   1.087       .  S
C1541      N3399   1.157       .  T
C1542      N1544   1.157       .  T
N1543      C3397   1.157       .  T
C1545      C1546   1.404       .  A
C1545      C1550   1.409       .  A
C1546      C1547   1.399       .  A
C1546      H1551   1.086       .  S
C1547      C1548   1.408       .  A
C1547      C1554   1.444       .  S
C1548      C1549   1.403       .  A
C1549      C1550   1.398       .  A
C1549      H1552   1.086       .  S
C1550      C1553   1.445       .  S
C1553      N1555   1.157       .  T
C1554      N1556   1.157       .  T
C1557      C1558   1.403       .  A
C1557      C1562   1.414       .  A
C1558      C1559   1.402       .  A
C1558      H1563   1.085       .  S
C1559      C1560   1.418       .  A
C1559      C1566   1.445       .  S
C1560      C1561   1.405       .  A
C1561      C1562   1.399       .  A
C1561      H1564   1.085       .  S
C1562      C1565   1.445       .  S
C1565      N3423   1.157       .  T
C1566      N1568   1.157       .  T
N1567      C3421   1.157       .  T
C1569      C1977   1.494   1_554  S
C1569      C1570   1.411       .  A
C1569      C1574   1.424       .  A
C1570      C1571   1.406       .  A
C1570      H1575   1.084       .  S
C1571      C1572   1.410       .  A
C1571      C1578   1.443       .  S
C1572      C1573   1.397       .  A
C1573      C1574   1.393       .  A
C1573      H1576   1.086       .  S
C1574      C3433   1.446   1_554  S
C1577      C3430   1.445       .  S
C1577      N1579   1.157       .  T
C1578      N1580   1.157       .  T
C1581      C1582   1.403       .  A
C1581      C1586   1.407       .  A
C1582      C1583   1.400       .  A
C1582      H1587   1.085       .  S
C1583      C1584   1.412       .  A
C1583      C1590   1.444       .  S
C1584      C1585   1.406       .  A
C1585      C1586   1.395       .  A
C1585      H1588   1.085       .  S
C1586      C1589   1.445       .  S
C1589      N1591   1.157       .  T
C1590      N1592   1.157       .  T
C1593      C1594   1.405       .  A
C1593      C1598   1.419       .  A
C1594      C1595   1.400       .  A
C1594      H1599   1.085       .  S
C1595      C1596   1.414       .  A
C1595      C1602   1.445       .  S
C1596      C1597   1.402       .  A
C1597      C1598   1.401       .  A
C1597      H1600   1.085       .  S
C1598      C1601   1.445       .  S
C1601      N1603   1.157       .  T
C1602      N1604   1.157       .  T
C1605      C1606   1.402       .  A
C1605      C1610   1.405       .  A
C1606      C1607   1.408       .  A
C1606      H1611   1.085       .  S
C1607      C1608   1.420       .  A
C1607      C1614   1.443       .  S
C1608      C1609   1.411       .  A
C1609      C1610   1.395       .  A
C1609      H1612   1.084       .  S
C1610      C1613   1.446       .  S
C1613      N1615   1.157       .  T
C1614      N1616   1.157       .  T
C1617      C1618   1.407       .  A
C1617      C3478   1.417   1_554  A
C1618      C3475   1.405   1_554  A
C1618      H1623   1.084       .  S
C1619      C1620   1.409       .  A
C1619      C3474   1.403       .  A
C1619      C1626   1.445       .  S
C1620      C1621   1.398       .  A
C1621      C1622   1.398       .  A
C1621      H1624   1.085       .  S
C1622      C3473   1.417       .  A
C1622      C1625   1.444       .  S
C1625      N1627   1.157       .  T
C1626      N1628   1.157       .  T
C1629      C1630   1.408       .  A
C1629      C1634   1.415       .  A
C1630      C1631   1.412       .  A
C1630      H1635   1.084       .  S
C1631      C1632   1.417       .  A
C1631      C1638   1.443       .  S
C1632      C1633   1.405       .  A
C1633      C1634   1.391       .  A
C1633      H1636   1.085       .  S
C1634      C1637   1.445       .  S
C1637      N1639   1.157       .  T
C1638      N1640   1.157       .  T
C1641      C1642   1.405       .  A
C1641      C1646   1.415       .  A
C1642      C1643   1.402       .  A
C1642      H1647   1.085       .  S
C1643      C1644   1.419       .  A
C1643      C1650   1.445       .  S
C1644      C1645   1.406       .  A
C1645      C1646   1.401       .  A
C1645      H1648   1.085       .  S
C1646      C1649   1.444       .  S
C1649      N1651   1.157       .  T
C1650      N1652   1.157       .  T
C1653      C1654   1.405       .  A
C1653      C1658   1.412       .  A
C1654      C1655   1.399       .  A
C1654      H1659   1.085       .  S
C1655      C1656   1.410       .  A
C1655      C1662   1.443       .  S
C1656      C1657   1.405       .  A
C1657      C1658   1.402       .  A
C1657      H1660   1.086       .  S
C1658      C1661   1.443       .  S
C1661      N1663   1.157       .  T
C1662      N1664   1.157       .  T
C1665      C1666   1.402       .  A
C1665      C1670   1.411       .  A
C1666      C1667   1.401       .  A
C1666      H1671   1.085       .  S
C1667      C1668   1.419       .  A
C1667      C1674   1.445       .  S
C1668      C1669   1.406       .  A
C1669      C1670   1.399       .  A
C1669      H1672   1.085       .  S
C1670      C1673   1.445       .  S
C1673      N1675   1.157       .  T
C1674      N1676   1.157       .  T
C1677      C1682   1.410       .  A
C1677      C3534   1.408       .  A
C1678      C1679   1.410       .  A
C1678      C3533   1.408   1_554  A
C1678      H1683   1.084       .  S
C1679      C1680   1.411       .  A
C1679      C1686   1.442       .  S
C1680      C1681   1.400   1_554  A
C1681      C3538   1.390       .  A
C1681      H3540   1.085       .  S
C1682      C3537   1.391       .  A
C1682      C1685   1.445       .  S
H1684      C3537   1.084       .  S
C1685      N1687   1.157       .  T
C1686      N1688   1.157       .  T
C1689      C1690   1.402       .  A
C1689      C1694   1.408       .  A
C1690      C1691   1.403       .  A
C1690      H3551   1.082       .  S
C1691      C1692   1.412       .  A
C1691      C3554   1.443       .  S
C1692      C1693   1.404       .  A
C1693      C1694   1.396       .  A
C1693      H1696   1.085       .  S
C1694      C1697   1.444       .  S
H1695      C3546   1.082   1_554  S
C1697      N1699   1.157       .  T
C1698      C3547   1.443       .  S
C1698      N1700   1.157   1_556  T
C1701      C1702   1.402       .  A
C1701      C1706   1.412       .  A
C1702      C1703   1.401       .  A
C1702      H1707   1.085       .  S
C1703      C1704   1.414       .  A
C1703      C1710   1.444       .  S
C1704      C1705   1.403       .  A
C1705      C1706   1.400       .  A
C1705      H1708   1.085       .  S
C1706      C1709   1.443       .  S
C1709      N1711   1.157   1_554  T
C1710      N1712   1.157       .  T
C1713      C1714   1.404       .  A
C1713      C1718   1.416       .  A
C1714      C1715   1.399       .  A
C1714      H1719   1.085       .  S
C1715      C1716   1.417       .  A
C1715      C1722   1.445       .  S
C1716      C1717   1.406       .  A
C1717      C1718   1.403       .  A
C1717      H1720   1.085       .  S
C1718      C1721   1.445       .  S
C1721      N1723   1.157       .  T
C1722      N1724   1.157       .  T
C1725      C1726   1.410       .  A
C1725      C1730   1.422       .  A
C1726      C1727   1.406       .  A
C1726      H1731   1.084       .  S
C1727      C1728   1.411       .  A
C1727      C1734   1.443       .  S
C1728      C1729   1.399       .  A
C1729      C1730   1.391       .  A
C1729      H1732   1.086       .  S
C1730      C1733   1.447       .  S
C1733      N1735   1.158       .  T
C1734      N1736   1.157       .  T
C1737      C1738   1.407       .  A
C1737      C1742   1.419       .  A
C1738      C1739   1.400       .  A
C1738      H1743   1.085       .  S
C1739      C1740   1.408       .  A
C1739      C1746   1.443       .  S
C1740      C1741   1.398       .  A
C1741      C1742   1.395       .  A
C1741      H1744   1.086       .  S
C1742      C1745   1.445       .  S
C1745      N1747   1.157       .  T
C1746      N1748   1.157       .  T
C1749      C1750   1.401       .  A
C1749      C1754   1.409       .  A
C1750      C1751   1.401       .  A
C1750      H1755   1.085       .  S
C1751      C1752   1.412       .  A
C1751      C1758   1.445       .  S
C1752      C1753   1.401       .  A
C1753      C1754   1.398       .  A
C1753      H1756   1.085       .  S
C1754      C1757   1.444       .  S
C1757      N1759   1.157       .  T
C1758      N1760   1.157       .  T
C1761      C1762   1.405       .  A
C1761      C1766   1.421       .  A
C1762      C1763   1.400       .  A
C1762      H1767   1.084       .  S
C1763      C1764   1.417       .  A
C1763      C1770   1.444       .  S
C1764      C1765   1.406       .  A
C1765      C1766   1.404       .  A
C1765      H1768   1.085       .  S
C1766      C1769   1.445       .  S
C1769      N1771   1.158       .  T
C1770      N1772   1.157       .  T
C1773      C1774   1.406       .  A
C1773      C1778   1.417       .  A
C1774      C1775   1.402       .  A
C1774      H1779   1.084       .  S
C1775      C1776   1.409       .  A
C1775      C1782   1.444       .  S
C1776      C1777   1.401       .  A
C1777      C1778   1.400       .  A
C1777      H1780   1.085       .  S
C1778      C1781   1.445       .  S
C1781      N1783   1.158       .  T
C1782      N1784   1.157       .  T
C1785      C1786   1.404       .  A
C1785      C1790   1.411       .  A
C1786      C1787   1.403       .  A
C1786      H1791   1.085       .  S
C1787      C1788   1.412       .  A
C1787      C1794   1.444       .  S
C1788      C1789   1.401       .  A
C1789      C1790   1.397       .  A
C1789      H1792   1.085       .  S
C1790      C1793   1.443       .  S
C1793      N1795   1.156       .  T
C1794      N1796   1.157       .  T
C1797      C1798   1.399       .  A
C1797      C1802   1.407       .  A
C1798      C1799   1.399       .  A
C1798      H1803   1.085       .  S
C1799      C1800   1.417       .  A
C1799      C1806   1.444       .  S
C1800      C1801   1.407       .  A
C1801      C1802   1.401       .  A
C1801      H1804   1.085       .  S
C1802      C1805   1.443       .  S
C1805      N1807   1.157       .  T
C1806      N1808   1.157       .  T
C1809      C1810   1.402       .  A
C1809      C1814   1.412       .  A
C1810      C1811   1.396       .  A
C1810      H1815   1.086       .  S
C1811      C1812   1.415       .  A
C1811      C1818   1.445       .  S
C1812      C1813   1.409       .  A
C1813      C1814   1.411       .  A
C1813      H1816   1.084       .  S
C1814      C1817   1.443       .  S
C1817      N1819   1.157       .  T
C1818      N1820   1.157       .  T
C1821      C1822   1.402       .  A
C1821      C1826   1.413       .  A
C1822      C1823   1.402       .  A
C1822      H1827   1.085       .  S
C1823      C1824   1.415       .  A
C1823      C1830   1.444       .  S
C1824      C1825   1.403       .  A
C1825      C1826   1.400       .  A
C1825      H1828   1.085       .  S
C1826      C1829   1.445       .  S
C1829      N1831   1.157       .  T
C1830      N1832   1.157       .  T
C1833      C1834   1.408       .  A
C1833      C1838   1.418       .  A
C1834      C1835   1.406       .  A
C1834      H1839   1.085       .  S
C1835      C1836   1.411       .  A
C1835      C1842   1.444       .  S
C1836      C1837   1.399       .  A
C1837      C1838   1.397       .  A
C1837      H1840   1.085       .  S
C1838      C1841   1.445       .  S
C1841      N1843   1.157       .  T
C1842      N1844   1.157       .  T
C1845      C1846   1.400       .  A
C1845      C1850   1.409       .  A
C1846      C1847   1.397       .  A
C1846      H1851   1.086       .  S
C1847      C1848   1.416       .  A
C1847      C1854   1.445       .  S
C1848      C1849   1.405       .  A
C1849      C1850   1.402       .  A
C1849      H1852   1.085       .  S
C1850      C1853   1.443       .  S
C1853      N1855   1.157       .  T
C1854      N1856   1.158       .  T
Fe1857     O1873   2.059       .  S
Fe1857     O1863   2.050       .  S
Fe1857     O1870   2.069       .  S
Fe1857     O1862   2.051       .  S
Fe1857     O1868   1.982       .  S
Fe1858     O1861   2.061       .  S
Fe1858     O1865   2.063       .  S
Fe1858     O1869   2.055       .  S
Fe1858     O1874   2.050       .  S
Fe1858     O1868   1.975       .  S
Fe1859     O1877   2.069       .  S
Fe1859     O1864   2.075       .  S
Fe1859     O1871   2.073       .  S
Fe1859     O1860   2.085       .  S
Fe1859     O1868   1.984       .  S
O1860      C1867   1.272       .  A
O1861      C1875   1.269       .  A
O1862      C1867   1.268       .  A
O1863      C1866   1.265       .  A
O1864      C1876   1.269       .  A
O1865      C1878   1.266       .  A
C1866      O1871   1.269       .  A
C1866      C3644   1.477       .  S
C1867      C3665   1.477       .  S
O1869      C1872   1.267       .  A
O1870      C1872   1.268       .  A
C1872      C3653   1.468       .  S
O1873      C1878   1.266       .  A
O1874      C1876   1.266       .  A
C1875      O1877   1.271       .  A
C1875      C3689   1.478       .  S
C1876      C3677   1.473       .  S
C1878      C3701   1.471       .  S
Fe1879     O1895   2.053       .  S
Fe1879     O1885   2.071       .  S
Fe1879     O1892   2.087       .  S
Fe1879     O1884   2.045       .  S
Fe1879     O1890   1.971       .  S
Fe1880     O1883   2.053       .  S
Fe1880     O1887   2.075       .  S
Fe1880     O1891   2.046       .  S
Fe1880     O1896   2.060       .  S
Fe1880     O1890   1.963       .  S
Fe1881     O1899   2.092       .  S
Fe1881     O1886   2.060       .  S
Fe1881     O1893   2.048       .  S
Fe1881     O1882   2.094       .  S
Fe1881     O1890   1.979       .  S
O1882      C1889   1.272       .  A
O1883      C1897   1.268       .  A
O1884      C1889   1.266       .  A
O1885      C1888   1.271       .  A
O1886      C1898   1.266       .  A
O1887      C1900   1.267       .  A
C1888      O1893   1.267       .  A
C1888      C3593   1.483       .  S
C1889      C3668   1.486       .  S
O1891      C1894   1.268       .  A
O1892      C1894   1.273       .  A
C1894      C3584   1.479       .  S
O1895      C1900   1.264       .  A
O1896      C1898   1.268       .  A
C1897      O1899   1.276       .  A
C1897      C3617   1.498       .  S
C1898      C3605   1.465       .  S
C1900      C3632   1.473       .  S
Fe1901     O1907   2.052       .  S
Fe1901     O1914   2.071       .  S
Fe1901     O1906   2.047       .  S
Fe1901     O1912   1.965       .  S
Fe1902     O1905   2.055       .  S
Fe1902     O1909   2.069       .  S
Fe1903     O1908   2.067       .  S
Fe1903     O1915   2.079       .  S
Fe1903     O1904   2.085       .  S
Fe1903     O1912   1.981       .  S
O1904      C1911   1.272       .  A
O1905      C1919   1.268       .  A
O1906      C1911   1.266       .  A
O1907      C1910   1.268       .  A
O1908      C1920   1.271       .  A
O1909      C1922   1.269       .  A
C1910      O1915   1.270       .  A
C1910      C3533   1.479       .  S
C1911      C3656   1.492       .  S
O1913      C1916   1.266       .  A
O1914      C1916   1.269       .  A
C1916      C3545   1.469       .  S
O1917      C1922   1.267       .  A
O1918      C1920   1.268       .  A
C1919      O1921   1.269       .  A
C1919      C3557   1.472       .  S
C1920      C3569   1.485       .  S
C1922      C3641   1.474       .  S
Fe1923     O1929   2.059       .  S
Fe1923     O1936   2.081       .  S
Fe1923     O1928   2.034       .  S
Fe1923     O1934   1.944       .  S
Fe1924     O1935   2.049       .  S
Fe1924     O1940   2.080       .  S
Fe1924     O1934   1.940       .  S
Fe1925     O1943   2.099       .  S
Fe1925     O1930   2.057       .  S
Fe1925     O1937   2.076       .  S
Fe1925     O1926   2.101       .  S
Fe1925     O1934   1.957       .  S
O1926      C1933   1.277       .  A
O1927      C1941   1.268       .  A
O1928      C1933   1.265       .  A
O1929      C1932   1.268       .  A
O1930      C1942   1.270       .  A
O1931      C1944   1.271       .  A
C1932      O1937   1.271       .  A
C1932      C3536   1.474       .  S
C1933      C3581   1.496       .  S
O1935      C1938   1.267       .  A
O1936      C1938   1.272       .  A
C1938      C3497   1.484       .  S
O1939      C1944   1.265       .  A
O1940      C1942   1.272       .  A
C1941      C3512   1.471       .  S
C1942      C3524   1.485       .  S
C1944      C3596   1.466       .  S
Fe1945     O1961   2.063       .  S
Fe1945     O1951   2.055       .  S
Fe1945     O1958   2.072       .  S
Fe1945     O1950   2.052       .  S
Fe1945     O1956   1.940       .  S
Fe1946     O1949   2.055       .  S
Fe1946     O1953   2.085       .  S
Fe1946     O1957   2.070       .  S
Fe1946     O1962   2.078       .  S
Fe1946     O1956   1.940       .  S
Fe1947     O1965   2.077       .  S
Fe1947     O1952   2.064       .  S
Fe1947     O1959   2.075       .  S
Fe1947     O1948   2.094       .  S
Fe1947     O1956   1.954       .  S
O1948      C1955   1.275       .  A
O1949      C1963   1.269       .  A
O1950      C1955   1.270       .  A
O1951      C1954   1.268       .  A
O1952      C1964   1.271       .  A
O1953      C1966   1.274       .  A
C1954      O1959   1.268       .  A
C1954      C3488   1.488       .  S
C1955      C3461   1.471       .  S
O1957      C1960   1.269       .  A
O1958      C1960   1.268       .  A
C1960      C3452   1.488       .  S
O1961      C1966   1.270       .  A
O1962      C1964   1.273       .  A
C1963      O1965   1.272       .  A
C1963      C3509   1.475       .  S
C1964      C3629   1.484       .  S
C1966      C3476   1.474       .  S
Fe1967     O1983   2.040       .  S
Fe1967     O1973   2.053       .  S
Fe1967     O1980   2.072       .  S
Fe1967     O1972   2.029       .  S
Fe1967     O1978   1.950       .  S
Fe1968     O1971   2.045       .  S
Fe1968     O1975   2.080       .  S
Fe1968     O1979   2.057       .  S
Fe1968     O1984   2.071       .  S
Fe1968     O1978   1.953       .  S
Fe1969     O1987   2.090       .  S
Fe1969     O1974   2.068       .  S
Fe1969     O1981   2.083       .  S
Fe1969     O1970   2.101       .  S
Fe1969     O1978   1.968       .  S
O1970      C1977   1.278       .  A
O1971      C1985   1.269       .  A
O1972      C1977   1.265       .  A
O1973      C1976   1.265       .  A
O1974      C1986   1.271       .  A
O1975      C1988   1.270       .  A
C1976      O1981   1.270       .  A
C1976      C3485   1.486       .  S
O1979      C1982   1.268       .  A
O1980      C1982   1.269       .  A
C1982      C3413   1.484       .  S
O1983      C1988   1.263       .  A
O1984      C1986   1.270       .  A
C1985      O1987   1.275       .  A
C1985      C3401   1.470       .  S
C1986      C3389   1.489       .  S
C1988      C3437   1.468       .  S
Fe1989     O2005   2.061       .  S
Fe1989     O1995   2.068       .  S
Fe1989     O2002   2.076       .  S
Fe1989     O1994   2.046       .  S
Fe1989     O2000   1.970       .  S
Fe1990     O1993   2.063       .  S
Fe1990     O1997   2.066       .  S
Fe1990     O2001   2.065       .  S
Fe1990     O2006   2.058       .  S
Fe1990     O2000   1.962       .  S
Fe1991     O2009   2.064       .  S
Fe1991     O1996   2.069       .  S
Fe1991     O2003   2.076       .  S
Fe1991     O1992   2.069       .  S
Fe1991     O2000   1.977       .  S
O1992      C1999   1.265       .  A
O1993      C2007   1.268       .  A
O1994      C1999   1.264       .  A
O1995      C1998   1.274       .  A
O1996      C2008   1.270       .  A
O1997      C2010   1.267       .  A
C1998      O2003   1.274       .  A
C1998      C3473   1.484       .  S
C1999      C3377   1.473       .  S
O2001      C2004   1.272       .  A
O2002      C2004   1.272       .  A
C2004      C3464   1.496       .  S
O2005      C2010   1.265       .  A
O2006      C2008   1.270       .  A
C2007      O2009   1.268       .  A
C2007      C3356   1.488       .  S
C2008      C3365   1.472       .  S
C2010      C3521   1.483       .  S
Fe2011     O2027   2.042       .  S
Fe2011     O2017   2.072       .  S
Fe2011     O2024   2.086       .  S
Fe2011     O2016   2.034       .  S
Fe2011     O2022   1.956       .  S
Fe2012     O2015   2.047       .  S
Fe2012     O2019   2.077       .  S
Fe2012     O2023   2.039       .  S
Fe2012     O2028   2.066       .  S
Fe2012     O2022   1.950       .  S
Fe2013     O2031   2.074       .  S
Fe2013     O2018   2.063       .  S
Fe2013     O2025   2.047       .  S
Fe2013     O2014   2.084       .  S
Fe2013     O2022   1.965       .  S
O2014      C2021   1.270       .  A
O2015      C2029   1.269       .  A
O2016      C2021   1.264       .  A
O2017      C2020   1.272       .  A
O2018      C2030   1.267       .  A
O2019      C2032   1.267       .  A
C2020      O2025   1.268       .  A
C2020      C3440   1.478       .  S
C2021      C3380   1.478       .  S
O2023      C2026   1.269       .  A
O2024      C2026   1.274       .  A
C2026      C3428   1.467       .  S
O2027      C2032   1.262       .  A
O2028      C2030   1.269       .  A
C2029      O2031   1.272       .  A
C2029      C3329   1.479       .  S
C2030      C3341   1.467       .  S
C2032      C3317   1.476       .  S
Fe2033     O2049   2.068       .  S
Fe2033     O2039   2.046       .  S
Fe2033     O2038   2.066       .  S
Fe2033     O2044   1.946       .  S
Fe2034     O2045   2.077       .  S
Fe2034     O2050   2.050       .  S
Fe2035     O2053   2.066       .  S
Fe2035     O2047   2.081       .  S
Fe2035     O2036   2.073       .  S
Fe2035     O2044   1.965       .  S
O2036      C2043   1.270       .  A
O2037      C2051   1.272       .  A
O2038      C2043   1.269       .  A
O2039      C2042   1.267       .  A
O2040      C2052   1.271       .  A
O2041      C2054   1.267       .  A
C2042      O2047   1.270       .  A
C2042      C3281   1.465       .  S
C2043      C3305   1.482   1_556  S
O2045      C2048   1.273       .  A
O2046      C2048   1.267       .  A
C2048      C3293   1.466       .  S
O2049      C2054   1.267       .  A
O2050      C2052   1.267       .  A
C2051      O2053   1.273       .  A
C2051      C3416   1.487       .  S
C2052      C3344   1.474       .  S
C2054      C3269   1.491       .  S
Fe2055     O2071   2.048       .  S
Fe2055     O2061   2.068       .  S
Fe2055     O2060   2.036       .  S
Fe2055     O2066   1.970       .  S
Fe2056     O2059   2.058       .  S
Fe2056     O2063   2.086       .  S
Fe2056     O2066   1.970       .  S
Fe2057     O2075   2.069       .  S
Fe2057     O2062   2.069       .  S
Fe2057     O2069   2.065       .  S
Fe2057     O2058   2.086       .  S
Fe2057     O2066   1.985       .  S
O2058      C2065   1.269       .  A
O2059      C2073   1.270       .  A
O2060      C2065   1.265       .  A
O2061      C2064   1.271       .  A
O2063      C2076   1.268       .  A
C2064      O2069   1.270       .  A
C2064      C3260   1.477       .  S
C2065      C3308   1.484       .  S
O2067      C2070   1.268       .  A
O2068      C2070   1.273       .  A
C2070      C3245   1.476       .  S
O2071      C2076   1.263       .  A
O2072      C2074   1.269       .  A
C2073      O2075   1.269       .  A
C2073      C3233   1.493       .  S
C2074      C3221   1.467       .  S
C2076      C3209   1.483       .  S
Fe2077     O2093   2.057       .  S
Fe2077     O2083   2.049       .  S
Fe2077     O2090   2.068       .  S
Fe2077     O2082   2.054       .  S
Fe2077     O2088   1.978       .  S
Fe2078     O2081   2.036       .  S
Fe2078     O2085   2.062       .  S
Fe2078     O2089   2.042       .  S
Fe2078     O2094   2.057       .  S
Fe2078     O2088   1.961       .  S
Fe2079     O2097   2.084       .  S
Fe2079     O2084   2.087       .  S
Fe2079     O2091   2.090       .  S
Fe2079     O2080   2.069       .  S
Fe2079     O2088   1.982       .  S
O2080      C2087   1.272       .  A
O2081      C2095   1.267       .  A
O2082      C2087   1.270       .  A
O2083      C2086   1.265       .  A
O2084      C2096   1.272       .  A
O2085      C2098   1.270       .  A
C2086      O2091   1.271       .  A
C2086      C3197   1.485       .  S
C2087      C3296   1.474       .  S
O2089      C2092   1.263       .  A
O2090      C2092   1.267       .  A
C2092      C3332   1.468       .  S
O2093      C2098   1.266       .  A
O2094      C2096   1.265       .  A
C2095      O2097   1.273       .  A
C2095      C3173   1.471       .  S
C2096      C3188   1.502       .  S
C2098      C3284   1.490       .  S
Fe2099     O2115   2.047       .  S
Fe2099     O2105   2.057       .  S
Fe2099     O2112   2.083       .  S
Fe2099     O2104   2.032       .  S
Fe2099     O2110   1.955       .  S
Fe2100     O2103   2.048       .  S
Fe2100     O2107   2.083       .  S
Fe2100     O2111   2.053       .  S
Fe2100     O2116   2.068       .  S
Fe2100     O2110   1.950       .  S
Fe2101     O2119   2.094       .  S
Fe2101     O2106   2.065       .  S
Fe2101     O2113   2.085       .  S
Fe2101     O2102   2.105       .  S
Fe2101     O2110   1.967       .  S
O2102      C2109   1.279       .  A
O2103      C2117   1.270       .  A
O2104      C2109   1.267       .  A
O2105      C2108   1.266       .  A
O2106      C2118   1.269       .  A
O2107      C2120   1.274       .  A
C2108      O2113   1.270       .  A
C2108      C3200   1.486       .  S
C2109      C3248   1.496       .  S
O2111      C2114   1.265       .  A
O2112      C2114   1.269       .  A
C2114      C3164   1.478       .  S
O2115      C2120   1.266       .  A
O2116      C2118   1.268       .  A
C2117      O2119   1.276       .  A
C2117      C3140   1.475       .  S
C2118      C3149   1.480       .  S
C2120      C3257   1.474       .  S
Fe2121     O2137   2.062   1_455  S
Fe2121     O2127   2.068       .  S
Fe2121     O2134   2.075       .  S
Fe2121     O2126   2.051       .  S
Fe2121     O2132   1.980       .  S
Fe2122     O2125   2.054       .  S
Fe2122     O2129   2.062       .  S
Fe2122     O2133   2.054       .  S
Fe2122     O2138   2.056       .  S
Fe2122     O2132   1.968       .  S
Fe2123     O2141   2.073       .  S
Fe2123     O2128   2.050       .  S
Fe2123     O2135   2.048       .  S
Fe2123     O2124   2.067       .  S
Fe2123     O2132   1.987       .  S
O2124      C2131   1.265       .  A
O2125      C2139   1.266       .  A
O2126      C2131   1.264       .  A
O2127      C2130   1.272       .  A
O2128      C2140   1.265       .  A
O2129      C2142   1.267   1_455  A
C2130      O2135   1.268       .  A
C2131      C3101   1.468       .  S
O2133      C2136   1.267       .  A
O2134      C2136   1.271       .  A
C2136      C3089   1.487       .  S
O2137      C2142   1.267       .  A
O2138      C2140   1.269       .  A
C2139      O2141   1.268       .  A
C2139      C3116   1.496       .  S
C2140      C3128   1.458       .  S
C2142      C3572   1.485       .  S
Fe2143     O2159   2.052   1_455  S
Fe2143     O2149   2.083       .  S
Fe2143     O2156   2.080       .  S
Fe2143     O2148   2.043       .  S
Fe2143     O2154   1.969       .  S
Fe2144     O2147   2.064       .  S
Fe2144     O2151   2.082       .  S
Fe2144     O2155   2.067       .  S
Fe2144     O2160   2.068       .  S
Fe2144     O2154   1.961       .  S
Fe2145     O2163   2.070       .  S
Fe2145     O2150   2.062       .  S
Fe2145     O2157   2.049       .  S
Fe2145     O2146   2.080       .  S
Fe2145     O2154   1.976       .  S
O2146      C2153   1.269       .  A
O2147      C2161   1.272       .  A
O2148      C2153   1.264       .  A
O2149      C2152   1.273       .  A
O2150      C2162   1.267       .  A
O2151      C2164   1.270   1_455  A
C2152      O2157   1.267       .  A
C2152      C3056   1.479       .  S
C2153      C3104   1.471       .  S
O2155      C2158   1.272       .  A
O2156      C2158   1.272       .  A
C2158      C3068   1.475   1_455  S
O2159      C2164   1.265       .  A
O2160      C2162   1.270       .  A
C2161      O2163   1.271       .  A
C2161      C3161   1.489       .  S
C2162      C3224   1.468       .  S
C2164      C3041   1.489       .  S
Fe2165     O2181   2.053       .  S
Fe2165     O2171   2.075   1_455  S
Fe2165     O2178   2.090       .  S
Fe2165     O2170   2.037   1_455  S
Fe2165     O2176   1.947   1_455  S
Fe2166     O2169   2.050       .  S
Fe2166     O2173   2.072       .  S
Fe2166     O2177   2.053   1_655  S
Fe2166     O2182   2.071       .  S
Fe2166     O2176   1.940       .  S
Fe2167     O2185   2.086       .  S
Fe2167     O2172   2.062       .  S
Fe2167     O2179   2.066       .  S
Fe2167     O2168   2.095       .  S
Fe2167     O2176   1.955       .  S
O2168      C2175   1.275       .  A
O2169      C2183   1.270       .  A
O2170      C2175   1.268       .  A
O2171      C2174   1.270       .  A
O2172      C2184   1.269       .  A
O2173      C2186   1.269   1_655  A
C2174      O2179   1.267       .  A
C2174      C3017   1.473       .  S
C2175      C3092   1.483       .  S
O2177      C2180   1.268       .  A
O2178      C2180   1.274       .  A
C2180      C3029   1.488       .  S
O2181      C2186   1.265       .  A
O2182      C2184   1.269       .  A
C2183      O2185   1.273       .  A
C2183      C3560   1.475       .  S
C2184      C3704   1.482       .  S
C2186      C3077   1.463       .  S
Fe2187     O2203   2.063   1_655  S
Fe2187     O2193   2.064       .  S
Fe2187     O2200   2.078   1_655  S
Fe2187     O2192   2.054       .  S
Fe2187     O2198   1.967       .  S
Fe2188     O2191   2.045       .  S
Fe2188     O2195   2.075       .  S
Fe2188     O2199   2.047   1_655  S
Fe2188     O2204   2.072       .  S
Fe2188     O2198   1.956       .  S
Fe2189     O2207   2.087       .  S
Fe2189     O2194   2.073       .  S
Fe2189     O2201   2.077       .  S
Fe2189     O2190   2.082       .  S
Fe2189     O2198   1.973       .  S
O2190      C2197   1.273       .  A
O2191      C2205   1.269       .  A
O2192      C2197   1.269       .  A
O2193      C2196   1.268       .  A
O2194      C2206   1.270       .  A
O2195      C2208   1.270   1_655  A
C2196      O2201   1.269       .  A
C2196      C3020   1.475       .  S
C2197      C3065   1.495       .  S
O2199      C2202   1.266       .  A
O2200      C2202   1.272       .  A
C2202      C3236   1.478       .  S
O2203      C2208   1.267       .  A
O2204      C2206   1.268       .  A
C2205      O2207   1.274       .  A
C2205      C3005   1.473       .  S
C2206      C2993   1.502       .  S
C2208      C3053   1.482       .  S
Fe2209     O2225   2.055       .  S
Fe2209     O2215   2.068       .  S
Fe2209     O2222   2.081       .  S
Fe2209     O2214   2.049       .  S
Fe2209     O2220   1.975       .  S
Fe2210     O2213   2.053       .  S
Fe2210     O2217   2.072       .  S
Fe2210     O2221   2.050       .  S
Fe2210     O2226   2.057       .  S
Fe2210     O2220   1.971       .  S
Fe2211     O2229   2.079       .  S
Fe2211     O2216   2.067       .  S
Fe2211     O2223   2.068       .  S
Fe2211     O2212   2.091       .  S
Fe2211     O2220   1.983       .  S
O2212      C2219   1.270       .  A
O2213      C2227   1.267       .  A
O2214      C2219   1.265       .  A
O2215      C2218   1.271       .  A
O2216      C2228   1.268       .  A
O2217      C2230   1.266       .  A
C2218      O2223   1.271       .  A
C2218      C2957   1.484       .  S
C2219      C2981   1.480       .  S
O2221      C2224   1.270       .  A
O2222      C2224   1.273       .  A
C2224      C2969   1.490       .  S
O2225      C2230   1.263       .  A
O2226      C2228   1.268       .  A
C2227      O2229   1.273       .  A
C2227      C3500   1.495       .  S
C2228      C3608   1.467       .  S
C2230      C2948   1.475       .  S
Fe2231     O2247   2.081       .  S
Fe2231     O2237   2.050       .  S
Fe2231     O2244   2.057       .  S
Fe2231     O2236   2.055       .  S
Fe2231     O2242   1.974       .  S
Fe2232     O2235   2.065       .  S
Fe2232     O2239   2.063       .  S
Fe2232     O2243   2.071       .  S
Fe2232     O2248   2.050       .  S
Fe2232     O2242   1.969       .  S
Fe2233     O2251   2.070       .  S
Fe2233     O2238   2.071       .  S
Fe2233     O2245   2.073       .  S
Fe2233     O2234   2.083       .  S
Fe2233     O2242   1.990       .  S
O2234      C2241   1.269       .  A
O2235      C2249   1.268       .  A
O2236      C2241   1.266       .  A
O2237      C2240   1.270       .  A
O2238      C2250   1.269       .  A
O2239      C2252   1.267       .  A
C2240      O2245   1.271       .  A
C2240      C2933   1.477       .  S
C2241      C2984   1.484       .  S
O2243      C2246   1.270       .  A
O2244      C2246   1.266       .  A
C2246      C2921   1.472       .  S
O2247      C2252   1.269       .  A
O2248      C2250   1.269       .  A
C2249      O2251   1.271       .  A
C2249      C2897   1.493       .  S
C2250      C2909   1.466       .  S
C2252      C3185   1.489       .  S
Fe2253     O2269   2.063       .  S
Fe2253     O2259   2.073       .  S
Fe2253     O2266   2.082       .  S
Fe2253     O2258   2.043       .  S
Fe2253     O2264   1.947       .  S
Fe2254     O2257   2.052       .  S
Fe2254     O2261   2.085       .  S
Fe2254     O2265   2.063       .  S
Fe2254     O2270   2.084       .  S
Fe2254     O2264   1.936       .  S
Fe2255     O2273   2.084       .  S
Fe2255     O2260   2.062       .  S
Fe2255     O2267   2.070       .  S
Fe2255     O2256   2.096       .  S
Fe2255     O2264   1.956       .  S
O2256      C2263   1.275       .  A
O2257      C2271   1.269       .  A
O2258      C2263   1.268       .  A
O2259      C2262   1.270       .  A
O2260      C2272   1.270       .  A
O2261      C2274   1.275       .  A
C2262      O2267   1.268       .  A
C2262      C2888   1.481       .  S
C2263      C2972   1.470       .  S
O2265      C2268   1.269       .  A
O2266      C2268   1.270       .  A
C2268      C3620   1.496       .  S
O2269      C2274   1.270       .  A
O2270      C2272   1.275       .  A
C2271      O2273   1.272       .  A
C2271      C2873   1.474       .  S
C2272      C2864   1.499       .  S
C2274      C2960   1.478       .  S
Fe2275     O2291   2.088       .  S
Fe2275     O2281   2.043       .  S
Fe2275     O2288   2.054       .  S
Fe2275     O2280   2.083       .  S
Fe2275     O2286   1.967       .  S
Fe2276     O2279   2.063       .  S
Fe2276     O2283   2.041       .  S
Fe2276     O2287   2.056       .  S
Fe2276     O2292   2.049       .  S
Fe2276     O2286   1.955       .  S
Fe2277     O2295   2.060       .  S
Fe2277     O2282   2.089       .  S
Fe2277     O2289   2.091       .  S
Fe2277     O2278   2.047       .  S
Fe2277     O2286   1.972       .  S
O2278      C2285   1.269       .  A
O2279      C2293   1.268       .  A
O2280      C2285   1.275       .  A
O2281      C2284   1.263       .  A
O2282      C2294   1.275       .  A
O2283      C2296   1.269       .  A
C2284      O2289   1.270       .  A
C2284      C2885   1.484       .  S
O2287      C2290   1.265       .  A
O2288      C2290   1.263       .  A
C2290      C2849   1.488       .  S
O2291      C2296   1.276       .  A
O2292      C2294   1.267       .  A
C2293      O2295   1.266       .  A
C2293      C3176   1.465       .  S
C2294      C3272   1.495       .  S
C2296      C2936   1.489       .  S
Fe2297     O2313   2.075       .  S
Fe2297     O2303   2.038       .  S
Fe2297     O2302   2.051       .  S
Fe2297     O2308   1.968       .  S
Fe2298     O2301   2.072       .  S
Fe2298     O2305   2.069       .  S
Fe2298     O2308   1.960       .  S
Fe2299     O2317   2.068       .  S
Fe2299     O2304   2.083       .  S
Fe2299     O2311   2.086       .  S
Fe2299     O2300   2.082       .  S
Fe2299     O2308   1.980       .  S
O2300      C2307   1.268       .  A
O2301      C2315   1.269       .  A
O2302      C2307   1.265       .  A
O2303      C2306   1.268       .  A
O2305      C2318   1.267       .  A
C2306      O2311   1.277       .  A
C2306      C2789   1.484       .  S
C2307      C2816   1.486       .  S
O2309      C2312   1.274       .  A
O2310      C2312   1.268       .  A
C2312      C2801   1.479       .  S
O2313      C2318   1.268       .  A
O2314      C2316   1.271       .  A
C2315      O2317   1.268       .  A
C2315      C2840   1.495       .  S
C2316      C2825   1.472       .  S
C2318      C2996   1.482       .  S
Fe2319     O2335   2.060       .  S
Fe2319     O2325   2.057       .  S
Fe2319     O2324   2.047   1_556  S
Fe2319     O2330   1.970       .  S
Fe2320     O2331   2.061       .  S
Fe2320     O2336   2.055       .  S
Fe2321     O2339   2.071       .  S
Fe2321     O2333   2.054       .  S
Fe2321     O2322   2.067       .  S
Fe2321     O2330   1.982       .  S
O2322      C2329   1.264   1_556  A
O2323      C2337   1.265       .  A
O2324      C2329   1.263       .  A
O2325      C2328   1.271       .  A
O2326      C2338   1.270       .  A
O2327      C2340   1.266       .  A
C2328      O2333   1.271       .  A
C2328      C2777   1.456       .  S
C2329      C2813   1.480       .  S
O2331      C2334   1.268       .  A
O2332      C2334   1.267       .  A
C2334      C2765   1.477       .  S
O2335      C2340   1.264       .  A
O2336      C2338   1.270       .  A
C2337      O2339   1.269       .  A
C2337      C2852   1.477       .  S
C2338      C2912   1.466       .  S
C2340      C3392   1.485       .  S
Fe2341     O2357   2.062       .  S
Fe2341     O2347   2.026       .  S
Fe2341     O2354   2.038       .  S
Fe2341     O2346   2.054       .  S
Fe2341     O2352   1.969       .  S
Fe2342     O2345   2.064       .  S
Fe2342     O2349   2.054       .  S
Fe2342     O2353   2.077       .  S
Fe2342     O2358   2.054       .  S
Fe2342     O2352   1.962       .  S
Fe2343     O2361   2.064       .  S
Fe2343     O2348   2.086       .  S
Fe2343     O2355   2.090       .  S
Fe2343     O2344   2.058       .  S
Fe2343     O2352   1.983       .  S
O2344      C2351   1.270       .  A
O2345      C2359   1.271       .  A
O2346      C2351   1.270       .  A
O2347      C2350   1.259       .  A
O2348      C2360   1.273       .  A
O2349      C2362   1.270       .  A
C2350      O2355   1.269       .  A
C2350      C2741   1.478       .  S
C2351      C2804   1.462       .  S
O2353      C2356   1.269       .  A
O2354      C2356   1.260       .  A
C2356      C2753   1.493       .  S
O2357      C2362   1.269       .  A
O2358      C2360   1.266       .  A
C2359      O2361   1.269       .  A
C2359      C3008   1.464       .  S
C2360      C3044   1.494       .  S
C2362      C2792   1.477       .  S
Fe2363     O2379   2.047       .  S
Fe2363     O2369   2.068       .  S
Fe2363     O2376   2.083       .  S
Fe2363     O2368   2.029       .  S
Fe2363     O2374   1.937       .  S
Fe2364     O2367   2.055       .  S
Fe2364     O2371   2.071       .  S
Fe2364     O2375   2.065       .  S
Fe2364     O2380   2.063       .  S
Fe2364     O2374   1.930       .  S
Fe2365     O2383   2.086       .  S
Fe2365     O2370   2.061       .  S
Fe2365     O2377   2.067       .  S
Fe2365     O2366   2.088       .  S
Fe2365     O2374   1.944       .  S
O2366      C2373   1.275       .  A
O2367      C2381   1.271       .  A
O2368      C2373   1.268       .  A
O2369      C2372   1.269       .  A
O2370      C2382   1.267       .  A
O2371      C2384   1.270       .  A
C2372      O2377   1.267       .  A
C2372      C2744   1.474       .  S
C2373      C2768   1.471       .  S
O2375      C2378   1.270       .  A
O2376      C2378   1.271       .  A
C2378      C2900   1.496       .  S
O2379      C2384   1.268       .  A
O2380      C2382   1.269       .  A
C2381      O2383   1.274       .  A
C2381      C3404   1.472       .  S
C2382      C3320   1.471       .  S
C2384      C2780   1.476       .  S
Fe2385     O2401   2.092       .  S
Fe2385     O2391   2.048       .  S
Fe2385     O2398   2.060       .  S
Fe2385     O2390   2.072       .  S
Fe2385     O2396   1.952       .  S
Fe2386     O2389   2.083       .  S
Fe2386     O2393   2.053       .  S
Fe2386     O2397   2.084       .  S
Fe2386     O2402   2.055       .  S
Fe2386     O2396   1.943       .  S
Fe2387     O2405   2.062       .  S
Fe2387     O2392   2.083       .  S
Fe2387     O2399   2.082       .  S
Fe2387     O2388   2.071       .  S
Fe2387     O2396   1.957       .  S
O2388      C2395   1.270       .  A
O2389      C2403   1.272       .  A
O2390      C2395   1.271       .  A
O2391      C2394   1.268       .  A
O2392      C2404   1.271       .  A
O2393      C2406   1.267       .  A
C2394      O2399   1.273       .  A
C2394      C2708   1.476       .  S
C2395      C2729   1.476       .  S
O2397      C2400   1.272       .  A
O2398      C2400   1.267       .  A
C2400      C2717   1.474       .  S
O2401      C2406   1.273       .  A
O2402      C2404   1.268       .  A
C2403      O2405   1.271       .  A
C2403      C3449   1.489       .  S
C2404      C3368   1.469       .  S
C2406      C2861   1.477       .  S
Fe2407     O2423   2.055       .  S
Fe2407     O2413   2.071       .  S
Fe2407     O2420   2.073       .  S
Fe2407     O2412   2.041       .  S
Fe2407     O2418   1.976       .  S
Fe2408     O2411   2.053       .  S
Fe2408     O2415   2.062       .  S
Fe2408     O2419   2.057       .  S
Fe2408     O2424   2.055       .  S
Fe2408     O2418   1.964       .  S
Fe2409     O2427   2.080       .  S
Fe2409     O2414   2.053       .  S
Fe2409     O2421   2.043       .  S
Fe2409     O2410   2.081       .  S
Fe2409     O2418   1.986       .  S
O2410      C2417   1.268       .  A
O2411      C2425   1.267       .  A
O2412      C2417   1.263       .  A
O2413      C2416   1.272       .  A
O2414      C2426   1.266       .  A
O2415      C2428   1.266       .  A
C2416      O2421   1.268       .  A
C2416      C2693   1.474       .  S
C2417      C2732   1.479       .  S
O2419      C2422   1.268       .  A
O2420      C2422   1.271       .  A
C2422      C2681   1.492       .  S
O2423      C2428   1.265       .  A
O2424      C2426   1.269       .  A
C2425      O2427   1.270       .  A
C2425      C3032   1.498       .  S
C2426      C3125   1.456       .  S
C2428      C2672   1.480       .  S
Fe2429     O2435   2.054       .  S
Fe2429     O2442   2.074       .  S
Fe2429     O2434   2.057       .  S
Fe2429     O2440   1.965       .  S
Fe2430     O2441   2.061       .  S
Fe2430     O2446   2.060       .  S
Fe2430     O2440   1.961       .  S
Fe2431     O2449   2.079       .  S
Fe2431     O2436   2.083       .  S
Fe2431     O2443   2.094       .  S
Fe2431     O2432   2.083       .  S
Fe2431     O2440   1.972       .  S
O2432      C2439   1.274       .  A
O2433      C2447   1.269       .  A
O2434      C2439   1.271       .  A
O2435      C2438   1.267       .  A
O2436      C2448   1.273       .  A
O2437      C2450   1.270       .  A
C2438      O2443   1.272       .  A
C2438      C2657   1.487       .  S
C2439      C2720   1.486       .  S
O2441      C2444   1.269       .  A
O2442      C2444   1.269       .  A
C2444      C3353   1.491       .  S
O2445      C2450   1.268       .  A
O2446      C2448   1.267       .  A
C2447      C2876   1.475       .  S
C2448      C2945   1.486       .  S
C2450      C2705   1.466       .  S
Fe2451     O2457   2.061       .  S
Fe2451     O2464   2.084       .  S
Fe2451     O2456   2.041       .  S
Fe2451     O2462   1.956       .  S
Fe2452     O2455   2.049       .  S
Fe2452     O2459   2.076       .  S
Fe2453     O2458   2.067       .  S
Fe2453     O2465   2.075       .  S
Fe2453     O2454   2.093       .  S
Fe2453     O2462   1.967       .  S
O2454      C2461   1.274       .  A
O2455      C2469   1.269       .  A
O2456      C2461   1.268       .  A
O2457      C2460   1.268       .  A
O2458      C2470   1.270       .  A
O2459      C2472   1.271       .  A
C2460      O2465   1.270       .  A
C2460      C2660   1.476   1_556  S
C2461      C2684   1.482       .  S
O2463      C2466   1.268       .  A
O2464      C2466   1.271       .  A
C2466      C3113   1.479       .  S
O2467      C2472   1.264       .  A
O2468      C2470   1.269       .  A
C2469      O2471   1.273       .  A
C2469      C2633   1.471       .  S
C2470      C2645   1.491       .  S
C2472      C2696   1.465       .  S
Fe2473     O2489   2.083       .  S
Fe2473     O2479   2.055       .  S
Fe2473     O2486   2.070       .  S
Fe2473     O2478   2.067   1_455  S
Fe2473     O2484   1.951   1_455  S
Fe2474     O2477   2.067       .  S
Fe2474     O2481   2.060   1_655  S
Fe2474     O2485   2.069   1_655  S
Fe2474     O2490   2.057       .  S
Fe2474     O2484   1.945       .  S
Fe2475     O2493   2.065       .  S
Fe2475     O2480   2.088       .  S
Fe2475     O2487   2.086       .  S
Fe2475     O2476   2.070       .  S
Fe2475     O2484   1.957       .  S
O2476      C2483   1.270       .  A
O2477      C2491   1.269       .  A
O2478      C2483   1.271       .  A
O2479      C2482   1.270   1_455  A
O2480      C2492   1.273       .  A
O2481      C2494   1.270       .  A
C2482      O2487   1.273       .  A
C2483      C2624   1.475       .  S
O2485      C2488   1.270       .  A
O2486      C2488   1.269       .  A
C2488      C2609   1.480       .  S
O2489      C2494   1.273       .  A
O2490      C2492   1.271       .  A
C2491      O2493   1.269       .  A
C2491      C3548   1.477       .  S
C2492      C3680   1.479       .  S
C2494      C2648   1.483       .  S
Fe2495     O2511   2.050   1_655  S
Fe2495     O2501   2.091       .  S
Fe2495     O2508   2.090   1_655  S
Fe2495     O2500   2.038       .  S
Fe2495     O2506   1.962       .  S
Fe2496     O2499   2.043       .  S
Fe2496     O2503   2.069   1_655  S
Fe2496     O2507   2.038       .  S
Fe2496     O2512   2.072       .  S
Fe2496     O2506   1.955       .  S
Fe2497     O2515   2.093       .  S
Fe2497     O2502   2.062       .  S
Fe2497     O2509   2.055       .  S
Fe2497     O2498   2.089       .  S
Fe2497     O2506   1.974       .  S
O2498      C2505   1.269       .  A
O2499      C2513   1.264       .  A
O2500      C2505   1.262       .  A
O2501      C2504   1.277       .  A
O2502      C2514   1.268       .  A
O2503      C2516   1.266       .  A
C2504      O2509   1.272       .  A
C2504      C2588   1.487       .  S
C2505      C2621   1.482       .  S
O2507      C2510   1.267       .  A
O2508      C2510   1.277   1_455  A
C2510      C2573   1.490   1_655  S
O2511      C2516   1.264       .  A
O2512      C2514   1.271       .  A
C2513      O2515   1.274       .  A
C2513      C2756   1.476       .  S
C2514      C2828   1.467       .  S
C2516      C3152   1.488       .  S
Fe2517     O2533   2.092       .  S
Fe2517     O2523   2.040       .  S
Fe2517     O2530   2.050   1_455  S
Fe2517     O2522   2.078       .  S
Fe2517     O2528   1.964       .  S
Fe2518     O2521   2.053       .  S
Fe2518     O2525   2.047       .  S
Fe2518     O2529   2.076       .  S
Fe2518     O2534   2.055       .  S
Fe2518     O2528   1.960       .  S
Fe2519     O2537   2.069       .  S
Fe2519     O2524   2.081       .  S
Fe2519     O2531   2.094       .  S
Fe2519     O2520   2.060       .  S
Fe2519     O2528   1.972       .  S
O2520      C2527   1.268       .  A
O2521      C2535   1.266       .  A
O2522      C2527   1.271       .  A
O2523      C2526   1.266       .  A
O2524      C2536   1.275       .  A
O2525      C2538   1.267       .  A
C2526      O2531   1.273       .  A
C2526      C2561   1.480       .  S
C2527      C2612   1.483       .  S
O2529      C2532   1.267   1_455  A
O2530      C2532   1.265       .  A
C2532      C3692   1.472       .  S
O2533      C2538   1.272       .  A
O2534      C2536   1.269       .  A
C2535      O2537   1.268       .  A
C2535      C2636   1.467       .  S
C2536      C2669   1.494       .  S
C2538      C2600   1.473       .  S
Fe2539     O2555   2.064       .  S
Fe2539     O2545   2.068       .  S
Fe2539     O2552   2.091   1_455  S
Fe2539     O2544   2.038       .  S
Fe2539     O2550   1.946       .  S
Fe2540     O2543   2.054       .  S
Fe2540     O2547   2.077       .  S
Fe2540     O2551   2.058       .  S
Fe2540     O2556   2.073       .  S
Fe2540     O2550   1.938       .  S
Fe2541     O2559   2.094       .  S
Fe2541     O2546   2.069       .  S
Fe2541     O2553   2.076       .  S
Fe2541     O2542   2.093       .  S
Fe2541     O2550   1.956       .  S
O2542      C2549   1.274       .  A
O2543      C2557   1.270       .  A
O2544      C2549   1.268       .  A
O2545      C2548   1.270       .  A
O2546      C2558   1.269       .  A
O2547      C2560   1.272       .  A
C2548      O2553   1.270       .  A
C2548      C2564   1.478       .  S
C2549      C2576   1.480       .  S
O2551      C2554   1.268   1_455  A
O2552      C2554   1.274       .  A
C2554      C2837   1.494       .  S
O2555      C2560   1.268       .  A
O2556      C2558   1.270       .  A
C2557      O2559   1.275       .  A
C2557      C3137   1.476       .  S
C2558      C3212   1.481       .  S
C2560      C2585   1.476   1_455  S
C2561      C2562   1.403       .  A
C2561      C2566   1.413       .  A
C2562      C2563   1.395       .  A
C2562      H2567   1.085       .  S
C2563      C2564   1.410   1_545  A
C2563      C2570   1.445       .  S
C2564      C2565   1.407   1_565  A
C2565      C2566   1.408       .  A
C2565      H2568   1.085   1_545  S
C2566      C2569   1.443       .  S
C2569      N2571   1.157       .  T
C2570      N2572   1.157       .  T
C2573      C2574   1.410       .  A
C2573      C2578   1.420   1_455  A
C2574      C2575   1.404       .  A
C2574      H2579   1.084       .  S
C2575      C2582   1.443   1_556  S
C2576      C2577   1.401       .  A
C2577      H2580   1.086   1_455  S
C2578      C2581   1.447       .  S
C2581      N2583   1.158       .  T
C2582      N2584   1.157       .  T
C2585      C2586   1.398       .  A
C2585      C2590   1.412   1_655  A
C2586      C2587   1.394       .  A
C2586      H2591   1.086       .  S
C2587      C2588   1.418       .  A
C2587      C2594   1.443       .  S
C2588      C2589   1.408       .  A
C2589      C2590   1.407   1_655  A
C2589      H2592   1.084   1_655  S
C2590      C2593   1.444       .  S
C2593      N2595   1.157       .  T
C2594      N2596   1.156       .  T
C2597      C2598   1.407   1_655  A
C2597      C2602   1.421       .  A
C2598      C2599   1.398       .  A
C2599      C2600   1.408       .  A
C2599      C2606   1.445       .  S
C2600      C2601   1.401   1_455  A
C2601      C2602   1.405       .  A
C2601      H2604   1.085       .  S
C2602      C2605   1.444       .  S
C2605      N2607   1.157       .  T
C2606      N2608   1.157       .  T
C2609      C2610   1.403       .  A
C2609      C2614   1.412       .  A
C2610      C2611   1.397       .  A
C2610      H2615   1.086       .  S
C2611      C2612   1.414       .  A
C2611      C2618   1.444       .  S
C2612      C2613   1.407       .  A
C2613      C2614   1.405       .  A
C2613      H2616   1.085       .  S
C2614      C2617   1.443   1_455  S
C2617      N2619   1.157       .  T
C2618      N2620   1.157       .  T
C2621      C2622   1.406   1_565  A
C2621      C2626   1.415   1_565  A
C2622      C2623   1.407       .  A
C2622      H2627   1.085       .  S
C2623      C2624   1.412       .  A
C2623      C2630   1.444       .  S
C2624      C2625   1.400       .  A
C2625      C2626   1.395       .  A
C2625      H2628   1.086       .  S
C2626      C2629   1.445   1_545  S
C2629      N2631   1.157       .  T
C2630      N2632   1.157       .  T
C2633      C2634   1.402       .  A
C2633      C2638   1.413       .  A
C2634      C2635   1.399       .  A
C2634      H2639   1.085       .  S
C2635      C2636   1.410       .  A
C2635      C2642   1.444       .  S
C2636      C2637   1.401       .  A
C2637      C2638   1.399       .  A
C2637      H2640   1.084       .  S
C2638      C2641   1.444       .  S
C2641      N2643   1.157       .  T
C2642      N2644   1.157       .  T
C2645      C2646   1.407       .  A
C2645      C2650   1.419       .  A
C2646      C2647   1.401       .  A
C2646      H2651   1.085       .  S
C2647      C2648   1.413       .  A
C2647      C2654   1.444       .  S
C2648      C2649   1.403       .  A
C2649      C2650   1.401       .  A
C2649      H2652   1.085       .  S
C2650      C2653   1.445       .  S
C2654      N2656   1.157       .  T
C2657      C2662   1.414       .  A
C2658      C2659   1.408       .  A
C2658      H2663   1.084       .  S
C2659      C2660   1.410   1_556  A
C2659      C2666   1.443       .  S
C2661      C2662   1.396       .  A
C2661      H2664   1.085       .  S
C2662      C2665   1.446       .  S
C2665      N2667   1.157       .  T
C2666      N2668   1.157       .  T
C2669      C2670   1.409       .  A
C2669      C2674   1.420       .  A
C2670      C2671   1.398       .  A
C2670      H2675   1.083       .  S
C2671      C2672   1.411       .  A
C2671      C2678   1.445       .  S
C2672      C2673   1.403       .  A
C2673      C2674   1.401       .  A
C2673      H2676   1.085       .  S
C2674      C2677   1.444       .  S
C2677      N2679   1.157       .  T
C2678      N2680   1.157       .  T
C2681      C2682   1.411       .  A
C2681      C2686   1.418       .  A
C2682      C2683   1.406       .  A
C2682      H2687   1.084       .  S
C2683      C2684   1.410       .  A
C2683      C2690   1.443       .  S
C2684      C2685   1.403       .  A
C2685      C2686   1.395       .  A
C2685      H2688   1.086       .  S
C2686      C2689   1.446       .  S
C2689      N2691   1.157       .  T
C2690      N2692   1.157       .  T
C2693      C2694   1.406       .  A
C2693      C2698   1.412       .  A
C2694      C2695   1.394       .  A
C2694      H2699   1.085       .  S
C2695      C2696   1.407       .  A
C2695      C2702   1.446       .  S
C2696      C2697   1.403       .  A
C2697      C2698   1.400       .  A
C2697      H2700   1.085       .  S
C2698      C2701   1.444       .  S
C2701      N2703   1.157       .  T
C2702      N2704   1.157       .  T
C2705      C2706   1.401       .  A
C2705      C2710   1.408       .  A
C2706      C2707   1.400       .  A
C2706      H2711   1.085       .  S
C2707      C2708   1.413       .  A
C2707      C2714   1.444       .  S
C2708      C2709   1.405       .  A
C2709      C2710   1.398       .  A
C2709      H2712   1.085       .  S
C2710      C2713   1.444       .  S
C2713      N2715   1.157       .  T
C2714      N2716   1.157       .  T
C2717      C2718   1.400       .  A
C2717      C2722   1.409       .  A
C2718      C2719   1.401       .  A
C2718      H2723   1.085       .  S
C2719      C2720   1.416       .  A
C2719      C2726   1.443       .  S
C2720      C2721   1.407       .  A
C2721      C2722   1.402       .  A
C2721      H2724   1.085       .  S
C2722      C2725   1.443       .  S
C2725      N2727   1.157       .  T
C2726      N2728   1.157       .  T
C2729      C2730   1.405       .  A
C2729      C2734   1.410       .  A
C2730      C2731   1.407       .  A
C2730      H2735   1.084       .  S
C2731      C2732   1.412       .  A
C2731      C2738   1.443       .  S
C2732      C2733   1.404       .  A
C2733      C2734   1.395       .  A
C2733      H2736   1.086       .  S
C2734      C2737   1.445       .  S
C2737      N2739   1.157       .  T
C2738      N2740   1.157       .  T
C2741      C2742   1.405       .  A
C2741      C2746   1.414       .  A
C2742      C2743   1.407       .  A
C2742      H2747   1.084       .  S
C2743      C2744   1.412       .  A
C2743      C2750   1.443       .  S
C2744      C2745   1.399       .  A
C2745      C2746   1.393       .  A
C2745      H2748   1.085       .  S
C2746      C2749   1.446       .  S
C2749      N2751   1.157       .  T
C2750      N2752   1.157       .  T
C2753      C2754   1.408       .  A
C2753      C2758   1.423       .  A
C2754      C2755   1.402       .  A
C2754      H2759   1.084       .  S
C2755      C2756   1.410       .  A
C2755      C2762   1.444       .  S
C2756      C2757   1.399       .  A
C2757      C2758   1.398       .  A
C2757      H2760   1.085       .  S
C2758      C2761   1.446       .  S
C2761      N2763   1.158       .  T
C2762      N2764   1.157       .  T
C2765      C2766   1.407       .  A
C2765      C2770   1.415       .  A
C2766      C2767   1.400       .  A
C2766      H2771   1.084       .  S
C2767      C2768   1.409       .  A
C2767      C2774   1.443       .  S
C2768      C2769   1.402       .  A
C2769      C2770   1.391       .  A
C2769      H2772   1.086       .  S
C2770      C2773   1.446       .  S
C2773      N2775   1.158       .  T
C2774      N2776   1.157       .  T
C2777      C2778   1.397       .  A
C2777      C2782   1.403       .  A
C2778      C2779   1.391       .  A
C2778      H2783   1.087       .  S
C2779      C2780   1.417       .  A
C2779      C2786   1.446       .  S
C2780      C2781   1.408       .  A
C2781      C2782   1.399       .  A
C2781      H2784   1.085       .  S
C2782      C2785   1.442       .  S
C2785      N2787   1.157       .  T
C2786      N2788   1.158       .  T
C2789      C2790   1.407       .  A
C2789      C2794   1.419       .  A
C2790      C2791   1.402       .  A
C2790      H2795   1.085       .  S
C2791      C2792   1.413       .  A
C2791      C2798   1.444       .  S
C2792      C2793   1.400       .  A
C2793      C2794   1.392       .  A
C2793      H2796   1.085       .  S
C2794      C2797   1.445       .  S
C2797      N2799   1.157       .  T
C2798      N2800   1.157       .  T
C2801      C2802   1.411       .  A
C2801      C2806   1.414       .  A
C2802      C2803   1.401       .  A
C2802      H2807   1.084       .  S
C2803      C2804   1.404       .  A
C2803      C2810   1.443       .  S
C2804      C2805   1.400       .  A
C2805      C2806   1.392       .  A
C2805      H2808   1.086       .  S
C2806      C2809   1.445       .  S
C2809      N2811   1.157       .  T
C2810      N2812   1.157       .  T
C2813      C2818   1.415   1_554  A
C2814      C2815   1.394       .  A
C2814      H2819   1.085       .  S
C2815      C2816   1.413       .  A
C2815      C2822   1.446       .  S
C2817      C2818   1.404       .  A
C2817      H2820   1.085       .  S
C2818      C2821   1.443       .  S
C2821      N2823   1.157       .  T
C2822      N2824   1.157       .  T
C2825      C2826   1.405       .  A
C2825      C2830   1.409       .  A
C2826      C2827   1.403       .  A
C2827      C2828   1.408       .  A
C2827      C2834   1.444       .  S
C2828      C2829   1.401       .  A
C2829      C2830   1.397       .  A
C2829      H2832   1.085       .  S
C2830      C2833   1.444       .  S
C2833      N2835   1.157       .  T
C2834      N2836   1.157       .  T
C2837      C2838   1.406       .  A
C2837      C2842   1.417       .  A
C2838      C2839   1.404       .  A
C2838      H2843   1.085       .  S
C2839      C2840   1.418       .  A
C2839      C2846   1.444       .  S
C2840      C2841   1.406       .  A
C2841      C2842   1.403       .  A
C2841      H2844   1.085       .  S
C2842      C2845   1.445       .  S
C2845      N2847   1.157   1_655  T
C2846      N2848   1.157       .  T
C2849      C2850   1.408       .  A
C2849      C2854   1.418       .  A
C2850      C2851   1.397       .  A
C2850      H2855   1.085       .  S
C2851      C2852   1.410       .  A
C2851      C2858   1.443       .  S
C2852      C2853   1.404       .  A
C2853      C2854   1.398       .  A
C2853      H2856   1.085       .  S
C2854      C2857   1.445       .  S
C2857      N2859   1.157       .  T
C2858      N2860   1.157       .  T
C2861      C2862   1.400       .  A
C2861      C2866   1.408       .  A
C2862      C2863   1.404       .  A
C2862      H2867   1.085       .  S
C2863      C2864   1.422       .  A
C2863      C2870   1.444       .  S
C2864      C2865   1.410       .  A
C2865      C2866   1.400       .  A
C2865      H2868   1.084       .  S
C2866      C2869   1.445       .  S
C2869      N2871   1.157       .  T
C2870      N2872   1.157       .  T
C2873      C2874   1.402       .  A
C2873      C2878   1.413       .  A
C2874      C2875   1.399       .  A
C2874      H2879   1.085       .  S
C2875      C2876   1.413       .  A
C2876      C2877   1.403       .  A
C2877      C2878   1.401       .  A
C2877      H2880   1.085       .  S
C2878      C2881   1.445       .  S
C2881      N2883   1.157       .  T
C2882      N2884   1.157       .  T
C2885      C2886   1.406   1_565  A
C2885      C2890   1.413   1_565  A
C2886      C2887   1.409       .  A
C2886      H2891   1.085       .  S
C2887      C2888   1.415       .  A
C2887      C2894   1.444       .  S
C2888      C2889   1.399       .  A
C2889      C2890   1.394       .  A
C2889      H2892   1.086       .  S
C2890      C2893   1.443   1_545  S
C2893      N2895   1.156       .  T
C2894      N2896   1.157       .  T
C2897      C2898   1.405       .  A
C2897      C2902   1.417       .  A
C2898      C2899   1.400       .  A
C2898      H2903   1.085       .  S
C2899      C2900   1.419       .  A
C2899      C2906   1.445       .  S
C2900      C2901   1.408       .  A
C2901      C2902   1.404       .  A
C2901      H2904   1.085       .  S
C2902      C2905   1.444       .  S
C2905      N2907   1.157       .  T
C2906      N2908   1.157       .  T
C2909      C2910   1.404       .  A
C2909      C2914   1.408       .  A
C2910      C2911   1.400       .  A
C2910      H2915   1.082       .  S
C2911      C2912   1.408       .  A
C2911      C2918   1.444       .  S
C2912      C2913   1.402       .  A
C2913      C2914   1.398       .  A
C2913      H2916   1.083       .  S
C2914      C2917   1.444       .  S
C2917      N2919   1.157       .  T
C2918      N2920   1.157       .  T
C2921      C2922   1.405       .  A
C2921      C2926   1.407       .  A
C2922      C2923   1.404       .  A
C2922      H2927   1.085       .  S
C2923      C2924   1.411       .  A
C2924      C2925   1.406       .  A
C2925      C2926   1.396       .  A
C2925      H2928   1.085       .  S
C2926      C2929   1.445       .  S
C2929      N2931   1.157       .  T
C2930      N2932   1.157   1_554  T
C2933      C2934   1.400       .  A
C2933      C2938   1.411       .  A
C2934      C2935   1.391       .  A
C2934      H2939   1.086       .  S
C2935      C2936   1.419       .  A
C2935      C2942   1.446       .  S
C2936      C2937   1.411       .  A
C2937      C2938   1.406       .  A
C2937      H2940   1.084       .  S
C2938      C2941   1.444       .  S
C2941      N2943   1.157       .  T
C2942      N2944   1.157       .  T
C2945      C2946   1.405       .  A
C2945      C2950   1.418       .  A
C2946      C2947   1.405       .  A
C2946      H2951   1.082       .  S
C2947      C2948   1.410       .  A
C2947      C2954   1.444       .  S
C2948      C2949   1.400       .  A
C2949      C2950   1.399       .  A
C2949      H2952   1.085       .  S
C2950      C2953   1.445       .  S
C2953      N2955   1.157       .  T
C2954      N2956   1.157       .  T
C2957      C2962   1.416       .  A
C2958      C2959   1.406       .  A
C2958      H2963   1.085   1_556  S
C2959      C2960   1.412       .  A
C2959      C2966   1.442       .  S
C2960      C2961   1.399       .  A
C2961      H2964   1.086       .  S
C2962      C2965   1.442       .  S
C2965      N2967   1.156       .  T
C2966      N2968   1.157       .  T
C2969      C2970   1.407       .  A
C2969      C2974   1.419       .  A
C2970      C2971   1.394       .  A
C2970      H2975   1.085       .  S
C2971      C2972   1.408       .  A
C2971      C2978   1.446       .  S
C2972      C2973   1.401       .  A
C2973      C2974   1.406       .  A
C2973      H2976   1.085       .  S
C2974      C2977   1.444       .  S
C2977      N2979   1.157       .  T
C2978      N2980   1.157       .  T
C2981      C2982   1.407       .  A
C2981      C2986   1.409       .  A
C2982      C2983   1.411       .  A
C2982      H2987   1.084       .  S
C2983      C2984   1.413   1_545  A
C2983      C2990   1.443       .  S
C2984      C2985   1.404   1_565  A
C2985      C2986   1.397       .  A
C2985      H2988   1.085   1_545  S
C2986      C2989   1.445       .  S
C2989      N2991   1.157       .  T
C2990      N2992   1.157       .  T
C2993      C2994   1.411       .  A
C2993      C2998   1.424       .  A
C2994      C2995   1.404       .  A
C2994      H2999   1.084       .  S
C2995      C2996   1.410       .  A
C2996      C2997   1.400       .  A
C2997      C2998   1.403       .  A
C2997      H3000   1.085       .  S
C2998      C3001   1.444       .  S
C3001      N3003   1.157       .  T
C3002      N3004   1.157   1_554  T
C3005      C3006   1.406       .  A
C3005      C3010   1.412       .  A
C3006      C3007   1.402       .  A
C3006      H3011   1.085       .  S
C3007      C3008   1.407       .  A
C3007      C3014   1.444       .  S
C3008      C3009   1.399       .  A
C3009      C3010   1.395       .  A
C3009      H3012   1.086       .  S
C3010      C3013   1.444       .  S
C3013      N3015   1.157       .  T
C3014      N3016   1.157       .  T
C3017      C3018   1.399       .  A
C3017      C3022   1.412       .  A
C3018      C3019   1.399       .  A
C3018      H3023   1.085       .  S
C3019      C3020   1.410       .  A
C3019      C3026   1.440       .  S
C3020      C3021   1.402       .  A
C3021      C3022   1.405       .  A
C3021      H3024   1.084       .  S
C3022      C3025   1.443       .  S
C3025      N3027   1.157       .  T
C3026      N3028   1.155       .  T
C3029      C3030   1.405       .  A
C3029      C3034   1.414       .  A
C3030      C3031   1.403       .  A
C3030      H3035   1.085       .  S
C3031      C3032   1.419       .  A
C3031      C3038   1.444       .  S
C3032      C3033   1.410       .  A
C3033      C3034   1.400       .  A
C3033      H3036   1.084       .  S
C3034      C3037   1.446       .  S
C3037      N3039   1.158       .  T
C3038      N3040   1.157       .  T
C3041      C3042   1.405       .  A
C3041      C3046   1.415       .  A
C3042      C3043   1.404       .  A
C3042      H3047   1.085       .  S
C3043      C3044   1.418       .  A
C3043      C3050   1.445       .  S
C3044      C3045   1.406       .  A
C3045      C3046   1.401       .  A
C3045      H3048   1.085       .  S
C3046      C3049   1.445       .  S
C3049      N3051   1.157       .  T
C3050      N3052   1.158       .  T
C3053      C3054   1.406       .  A
C3053      C3058   1.412       .  A
C3054      C3055   1.404       .  A
C3054      H3059   1.082       .  S
C3055      C3056   1.410       .  A
C3055      C3062   1.443       .  S
C3056      C3057   1.405       .  A
C3057      C3058   1.398       .  A
C3057      H3060   1.086       .  S
C3058      C3061   1.445       .  S
C3061      N3063   1.157       .  T
C3062      N3064   1.157       .  T
C3065      C3070   1.421       .  A
C3066      C3067   1.400   1_554  A
C3066      H3071   1.084       .  S
C3067      C3068   1.406   1_455  A
C3067      C3074   1.444       .  S
C3068      C3069   1.401       .  A
C3069      H3072   1.085       .  S
C3070      C3073   1.444       .  S
C3073      N3075   1.157       .  T
C3074      N3076   1.157       .  T
C3077      C3078   1.400   1_455  A
C3077      C3082   1.406       .  A
C3078      C3079   1.399   1_655  A
C3078      H3083   1.083       .  S
C3079      C3080   1.414       .  A
C3079      C3086   1.444   1_455  S
C3080      C3081   1.406       .  A
C3081      C3082   1.396       .  A
C3082      C3085   1.445       .  S
C3085      N3087   1.157       .  T
C3086      N3088   1.157       .  T
C3089      C3090   1.409   1_455  A
C3089      C3094   1.417       .  A
C3090      C3091   1.407       .  A
C3090      H3095   1.084       .  S
C3091      C3092   1.412       .  A
C3091      C3098   1.443       .  S
C3092      C3093   1.403   1_655  A
C3093      C3094   1.393       .  A
C3093      H3096   1.086       .  S
C3094      C3097   1.446       .  S
C3097      N3099   1.157       .  T
C3098      N3100   1.157       .  T
C3101      C3102   1.404       .  A
C3101      C3106   1.407       .  A
C3102      C3103   1.404       .  A
C3102      H3107   1.085       .  S
C3103      C3104   1.410       .  A
C3103      C3110   1.444       .  S
C3104      C3105   1.402       .  A
C3105      C3106   1.396       .  A
C3105      H3108   1.085       .  S
C3106      C3109   1.444       .  S
C3109      N3111   1.157       .  T
C3110      N3112   1.157       .  T
C3113      C3114   1.403       .  A
C3113      C3118   1.409       .  A
C3114      C3115   1.404       .  A
C3114      H3119   1.085   1_556  S
C3115      C3116   1.419       .  A
C3115      C3122   1.444       .  S
C3116      C3117   1.410       .  A
C3117      C3118   1.398       .  A
C3117      H3120   1.084       .  S
C3121      N3123   1.157       .  T
C3122      N3124   1.157       .  T
C3125      C3126   1.399       .  A
C3125      C3130   1.409       .  A
C3126      C3127   1.396       .  A
C3126      H3131   1.085       .  S
C3127      C3128   1.409       .  A
C3127      C3134   1.445       .  S
C3128      C3129   1.399       .  A
C3129      C3130   1.396       .  A
C3129      H3132   1.085       .  S
C3130      C3133   1.445       .  S
C3133      N3135   1.157       .  T
C3134      N3136   1.157       .  T
C3137      C3138   1.404       .  A
C3137      C3142   1.411       .  A
C3138      C3139   1.400       .  A
C3138      H3143   1.085       .  S
C3139      C3140   1.411       .  A
C3139      C3146   1.445       .  S
C3140      C3141   1.404       .  A
C3141      C3142   1.402       .  A
C3141      H3144   1.085       .  S
C3142      C3145   1.444       .  S
C3145      N3147   1.157       .  T
C3146      N3148   1.157       .  T
C3149      C3150   1.404       .  A
C3149      C3154   1.410       .  A
C3150      C3151   1.402       .  A
C3150      H3155   1.083       .  S
C3151      C3152   1.416       .  A
C3151      C3158   1.444       .  S
C3152      C3153   1.407       .  A
C3153      C3154   1.399       .  A
C3153      H3156   1.085       .  S
C3154      C3157   1.445       .  S
C3157      N3159   1.157       .  T
C3158      N3160   1.157       .  T
C3161      C3162   1.406       .  A
C3161      C3166   1.419       .  A
C3162      C3163   1.400       .  A
C3162      H3167   1.085       .  S
C3163      C3164   1.411       .  A
C3163      C3170   1.443       .  S
C3164      C3165   1.402       .  A
C3165      C3166   1.401       .  A
C3165      H3168   1.085       .  S
C3166      C3169   1.445       .  S
C3169      N3171   1.157       .  T
C3170      N3172   1.157       .  T
C3173      C3174   1.407       .  A
C3173      C3178   1.411       .  A
C3174      C3175   1.403       .  A
C3174      H3179   1.085       .  S
C3175      C3176   1.407       .  A
C3175      C3182   1.444       .  S
C3176      C3177   1.401       .  A
C3177      C3178   1.395       .  A
C3177      H3180   1.086       .  S
C3178      C3181   1.446       .  S
C3181      N3183   1.157       .  T
C3182      N3184   1.157       .  T
C3185      C3186   1.401       .  A
C3185      C3190   1.413       .  A
C3186      C3187   1.402       .  A
C3186      H3191   1.085       .  S
C3187      C3188   1.423       .  A
C3187      C3194   1.445       .  S
C3188      C3189   1.410       .  A
C3189      C3190   1.407       .  A
C3189      H3192   1.084       .  S
C3190      C3193   1.444       .  S
C3193      N3195   1.157       .  T
C3194      N3196   1.158       .  T
C3197      C3198   1.403       .  A
C3197      C3202   1.413       .  A
C3198      C3199   1.397       .  A
C3198      H3203   1.085       .  S
C3199      C3200   1.414       .  A
C3199      C3206   1.446       .  S
C3200      C3201   1.407       .  A
C3201      C3202   1.411       .  A
C3201      H3204   1.084       .  S
C3202      C3205   1.443       .  S
C3205      N3207   1.157       .  T
C3206      N3208   1.157       .  T
C3209      C3210   1.407       .  A
C3209      C3214   1.412       .  A
C3210      C3211   1.409       .  A
C3210      H3215   1.084       .  S
C3211      C3212   1.414       .  A
C3211      C3218   1.444       .  S
C3212      C3213   1.400       .  A
C3213      C3214   1.395       .  A
C3213      H3216   1.086       .  S
C3214      C3217   1.442       .  S
C3217      N3219   1.156       .  T
C3221      C3222   1.400       .  A
C3221      C3226   1.411       .  A
C3222      C3223   1.399       .  A
C3222      H3227   1.085       .  S
C3223      C3224   1.411       .  A
C3223      C3230   1.444       .  S
C3224      C3225   1.400       .  A
C3225      C3226   1.401       .  A
C3225      H3228   1.083       .  S
C3229      N3231   1.157       .  T
C3230      N3232   1.157       .  T
C3233      C3234   1.408       .  A
C3233      C3238   1.421       .  A
C3234      C3235   1.398       .  A
C3234      H3239   1.084       .  S
C3235      C3236   1.412       .  A
C3235      C3242   1.445       .  S
C3236      C3237   1.401       .  A
C3237      C3238   1.399       .  A
C3237      H3240   1.085       .  S
C3238      C3241   1.445       .  S
C3241      N3243   1.157       .  T
C3242      N3244   1.157   1_455  T
C3245      C3246   1.398       .  A
C3245      C3250   1.409       .  A
C3246      C3247   1.392       .  A
C3246      H3251   1.086       .  S
C3247      C3248   1.423       .  A
C3247      C3254   1.446       .  S
C3248      C3249   1.412       .  A
C3249      C3250   1.408       .  A
C3249      H3252   1.084       .  S
C3250      C3253   1.443       .  S
C3253      N3255   1.157       .  T
C3254      N3256   1.158       .  T
C3257      C3258   1.399       .  A
C3257      C3262   1.412       .  A
C3258      C3259   1.396       .  A
C3258      H3263   1.086       .  S
C3259      C3260   1.413       .  A
C3259      C3266   1.441       .  S
C3260      C3261   1.405       .  A
C3261      C3262   1.402       .  A
C3261      H3264   1.085       .  S
C3262      C3265   1.444       .  S
C3265      N3267   1.157       .  T
C3266      N3268   1.156       .  T
C3269      C3270   1.405       .  A
C3269      C3274   1.416       .  A
C3270      C3271   1.402       .  A
C3270      H3275   1.084       .  S
C3271      C3272   1.420       .  A
C3271      C3278   1.445       .  S
C3272      C3273   1.407       .  A
C3273      C3274   1.399       .  A
C3273      H3276   1.084       .  S
C3274      C3277   1.445       .  S
C3277      N3279   1.157       .  T
C3278      N3280   1.158       .  T
C3281      C3282   1.399       .  A
C3281      C3286   1.406       .  A
C3282      C3283   1.404       .  A
C3282      H3287   1.085       .  S
C3283      C3284   1.422       .  A
C3283      C3290   1.444       .  S
C3284      C3285   1.408       .  A
C3285      C3286   1.392       .  A
C3285      H3288   1.084       .  S
C3286      C3289   1.447       .  S
C3289      N3291   1.157       .  T
C3290      N3292   1.157       .  T
C3293      C3294   1.402       .  A
C3293      C3298   1.407       .  A
C3294      C3295   1.401       .  A
C3294      H3299   1.084       .  S
C3295      C3296   1.413       .  A
C3295      C3302   1.444       .  S
C3296      C3297   1.404       .  A
C3297      C3298   1.395       .  A
C3297      H3300   1.084       .  S
C3298      C3301   1.445       .  S
C3301      N3303   1.157       .  T
C3302      N3304   1.157       .  T
C3305      C3306   1.409   1_554  A
C3306      H3311   1.084       .  S
C3307      C3308   1.414       .  A
C3307      C3314   1.442       .  S
C3308      C3309   1.401       .  A
C3309      C3310   1.390       .  A
C3309      H3312   1.086       .  S
C3310      C3313   1.445       .  S
C3313      N3315   1.157       .  T
C3314      N3316   1.157       .  T
C3317      C3318   1.407       .  A
C3317      C3322   1.413       .  A
C3318      C3319   1.404       .  A
C3318      H3323   1.083       .  S
C3319      C3320   1.410       .  A
C3319      C3326   1.444       .  S
C3320      C3321   1.401       .  A
C3321      C3322   1.393       .  A
C3321      H3324   1.084       .  S
C3322      C3325   1.444       .  S
C3325      N3327   1.157       .  T
C3326      N3328   1.157       .  T
C3329      C3330   1.406       .  A
C3329      C3334   1.416       .  A
C3330      C3331   1.396       .  A
C3330      H3335   1.085       .  S
C3331      C3332   1.409       .  A
C3331      C3338   1.445       .  S
C3332      C3333   1.401       .  A
C3333      C3334   1.398       .  A
C3333      H3336   1.085       .  S
C3334      C3337   1.445       .  S
C3337      N3339   1.157       .  T
C3338      N3340   1.157       .  T
C3341      C3342   1.400       .  A
C3341      C3346   1.410       .  A
C3342      C3343   1.401       .  A
C3342      H3347   1.085       .  S
C3343      C3344   1.414       .  A
C3343      C3350   1.444       .  S
C3344      C3345   1.402       .  A
C3345      C3346   1.399       .  A
C3345      H3348   1.085       .  S
C3346      C3349   1.444       .  S
C3349      N3351   1.157       .  T
C3350      N3352   1.157       .  T
C3353      C3354   1.406       .  A
C3353      C3358   1.417       .  A
C3354      C3355   1.401       .  A
C3354      H3359   1.085       .  S
C3355      C3356   1.415       .  A
C3355      C3362   1.444       .  S
C3356      C3357   1.405       .  A
C3357      C3358   1.401       .  A
C3357      H3360   1.085       .  S
C3358      C3361   1.445       .  S
C3361      N3363   1.157       .  T
C3362      N3364   1.157       .  T
C3365      C3366   1.404       .  A
C3365      C3370   1.410       .  A
C3366      C3367   1.400       .  A
C3366      H3371   1.085       .  S
C3367      C3368   1.408       .  A
C3367      C3374   1.442       .  S
C3368      C3369   1.403       .  A
C3369      C3370   1.399       .  A
C3369      H3372   1.085       .  S
C3370      C3373   1.445       .  S
C3373      N3375   1.157       .  T
C3374      N3376   1.157       .  T
C3377      C3378   1.404       .  A
C3377      C3382   1.410       .  A
C3378      C3379   1.406       .  A
C3378      H3383   1.085       .  S
C3379      C3380   1.414       .  A
C3379      C3386   1.443       .  S
C3380      C3381   1.403       .  A
C3381      C3382   1.392       .  A
C3381      H3384   1.086       .  S
C3382      C3385   1.446       .  S
C3385      N3387   1.157       .  T
C3386      N3388   1.157       .  T
C3389      C3390   1.407       .  A
C3389      C3394   1.416       .  A
C3390      C3391   1.403       .  A
C3390      H3395   1.087       .  S
C3391      C3392   1.414       .  A
C3391      C3398   1.444       .  S
C3392      C3393   1.402       .  A
C3393      C3394   1.400       .  A
C3394      C3397   1.444       .  S
C3398      N3400   1.157   1_556  T
C3401      C3402   1.403       .  A
C3401      C3406   1.410       .  A
C3402      C3403   1.400       .  A
C3402      H3407   1.085       .  S
C3403      C3404   1.410       .  A
C3403      C3410   1.444       .  S
C3404      C3405   1.404       .  A
C3405      C3406   1.399       .  A
C3405      H3408   1.085       .  S
C3406      C3409   1.445       .  S
C3409      N3411   1.157       .  T
C3410      N3412   1.157       .  T
C3413      C3414   1.403       .  A
C3413      C3418   1.415       .  A
C3414      C3415   1.400       .  A
C3414      H3419   1.085       .  S
C3415      C3416   1.417       .  A
C3415      C3422   1.444       .  S
C3416      C3417   1.405       .  A
C3417      C3418   1.400       .  A
C3417      H3420   1.085       .  S
C3418      C3421   1.445       .  S
C3422      N3424   1.157       .  T
C3425      C3426   1.411       .  A
C3425      C3430   1.418       .  A
C3426      C3427   1.403       .  A
C3426      H3431   1.084       .  S
C3427      C3428   1.406       .  A
C3427      C3434   1.444       .  S
C3428      C3429   1.398       .  A
C3429      C3430   1.393       .  A
C3429      H3432   1.086       .  S
C3433      N3435   1.158       .  T
C3434      N3436   1.157       .  T
C3437      C3438   1.402       .  A
C3437      C3442   1.407       .  A
C3438      C3439   1.398       .  A
C3438      H3443   1.085       .  S
C3439      C3440   1.413       .  A
C3439      C3446   1.444       .  S
C3440      C3441   1.408       .  A
C3441      C3442   1.397       .  A
C3441      H3444   1.085       .  S
C3442      C3445   1.445       .  S
C3445      N3447   1.157       .  T
C3446      N3448   1.157       .  T
C3449      C3450   1.405       .  A
C3449      C3454   1.416       .  A
C3450      C3451   1.400       .  A
C3450      H3455   1.085       .  S
C3451      C3452   1.416       .  A
C3451      C3458   1.445       .  S
C3452      C3453   1.405       .  A
C3453      C3454   1.404       .  A
C3453      H3456   1.085       .  S
C3454      C3457   1.444       .  S
C3457      N3459   1.157       .  T
C3458      N3460   1.157       .  T
C3461      C3462   1.401       .  A
C3461      C3466   1.406       .  A
C3462      C3463   1.407       .  A
C3462      H3467   1.085       .  S
C3463      C3464   1.420       .  A
C3463      C3470   1.443       .  S
C3464      C3465   1.410       .  A
C3465      C3466   1.395       .  A
C3465      H3468   1.084       .  S
C3466      C3469   1.446       .  S
C3469      N3471   1.157       .  T
C3470      N3472   1.157       .  T
C3473      C3474   1.407       .  A
C3474      H3479   1.084       .  S
C3475      C3476   1.410       .  A
C3475      C3482   1.444       .  S
C3476      C3477   1.398       .  A
C3477      C3478   1.398       .  A
C3477      H3480   1.085       .  S
C3478      C3481   1.443   1_556  S
C3481      N3483   1.157       .  T
C3482      N3484   1.157       .  T
C3485      C3486   1.408       .  A
C3485      C3490   1.415       .  A
C3486      C3487   1.412       .  A
C3486      H3491   1.084       .  S
C3487      C3488   1.417       .  A
C3487      C3494   1.443       .  S
C3488      C3489   1.401       .  A
C3489      C3490   1.389       .  A
C3489      H3492   1.086       .  S
C3490      C3493   1.444       .  S
C3493      N3495   1.157       .  T
C3494      N3496   1.157       .  T
C3497      C3498   1.403       .  A
C3497      C3502   1.412       .  A
C3498      C3499   1.400       .  A
C3498      H3503   1.085       .  S
C3499      C3500   1.420       .  A
C3499      C3506   1.445       .  S
C3500      C3501   1.409       .  A
C3501      C3502   1.399       .  A
C3501      H3504   1.084       .  S
C3502      C3505   1.445       .  S
C3505      N3507   1.157       .  T
C3506      N3508   1.157       .  T
C3509      C3510   1.404       .  A
C3509      C3514   1.411       .  A
C3510      C3511   1.398       .  A
C3510      H3515   1.085       .  S
C3511      C3512   1.409       .  A
C3511      C3518   1.442       .  S
C3512      C3513   1.403       .  A
C3513      C3514   1.399       .  A
C3513      H3516   1.086   1_556  S
C3514      C3517   1.444       .  S
C3517      N3519   1.157       .  T
C3518      N3520   1.157       .  T
C3521      C3522   1.404       .  A
C3521      C3526   1.414       .  A
C3522      C3523   1.402       .  A
C3522      H3527   1.084       .  S
C3523      C3524   1.416       .  A
C3523      C3530   1.444       .  S
C3524      C3525   1.405       .  A
C3525      C3526   1.399       .  A
C3525      H3528   1.085       .  S
C3526      C3529   1.445       .  S
C3529      N3531   1.157       .  T
C3530      N3532   1.157       .  T
C3533      C3538   1.411       .  A
C3534      C3535   1.410       .  A
C3534      H3539   1.084       .  S
C3535      C3536   1.410       .  A
C3535      C3542   1.442       .  S
C3536      C3537   1.399       .  A
C3538      C3541   1.447       .  S
C3541      N3543   1.157       .  T
C3542      N3544   1.157       .  T
C3545      C3546   1.401       .  A
C3545      C3550   1.407       .  A
C3546      C3547   1.401       .  A
C3547      C3548   1.411       .  A
C3548      C3549   1.406       .  A
C3549      C3550   1.397       .  A
C3549      H3552   1.085       .  S
C3550      C3553   1.444       .  S
C3553      N3555   1.157       .  T
C3554      N3556   1.157       .  T
C3557      C3558   1.402       .  A
C3557      C3562   1.412       .  A
C3558      C3559   1.400       .  A
C3558      H3563   1.085       .  S
C3559      C3560   1.414       .  A
C3559      C3566   1.444       .  S
C3560      C3561   1.402       .  A
C3561      C3562   1.398       .  A
C3561      H3564   1.085       .  S
C3562      C3565   1.444       .  S
C3565      N3567   1.157       .  T
C3566      N3568   1.157       .  T
C3569      C3570   1.403       .  A
C3569      C3574   1.416       .  A
C3570      C3571   1.399       .  A
C3570      H3575   1.085       .  S
C3571      C3572   1.415       .  A
C3571      C3578   1.444       .  S
C3572      C3573   1.405       .  A
C3573      C3574   1.402       .  A
C3573      H3576   1.085       .  S
C3574      C3577   1.445       .  S
C3577      N3579   1.158       .  T
C3578      N3580   1.157       .  T
C3581      C3582   1.411       .  A
C3581      C3586   1.423       .  A
C3582      C3583   1.407       .  A
C3582      H3587   1.084       .  S
C3583      C3584   1.410       .  A
C3583      C3590   1.443       .  S
C3584      C3585   1.400       .  A
C3585      C3586   1.394       .  A
C3585      H3588   1.086       .  S
C3586      C3589   1.446       .  S
C3589      N3591   1.157       .  T
C3590      N3592   1.157       .  T
C3593      C3594   1.407       .  A
C3593      C3598   1.419       .  A
C3594      C3595   1.401       .  A
C3594      H3599   1.085       .  S
C3595      C3596   1.409       .  A
C3595      C3602   1.443       .  S
C3596      C3597   1.397       .  A
C3597      C3598   1.394       .  A
C3597      H3600   1.086       .  S
C3598      C3601   1.444       .  S
C3601      N3603   1.157       .  T
C3602      N3604   1.157       .  T
C3605      C3606   1.399       .  A
C3605      C3610   1.410       .  A
C3606      C3607   1.397       .  A
C3606      H3611   1.085       .  S
C3607      C3608   1.410       .  A
C3607      C3614   1.443       .  S
C3608      C3609   1.401       .  A
C3609      C3610   1.401       .  A
C3609      H3612   1.085       .  S
C3610      C3613   1.444       .  S
C3613      N3615   1.157       .  T
C3614      N3616   1.157       .  T
C3617      C3618   1.406       .  A
C3617      C3622   1.420       .  A
C3618      C3619   1.402       .  A
C3618      H3623   1.084       .  S
C3619      C3620   1.417       .  A
C3619      C3626   1.444       .  S
C3620      C3621   1.406       .  A
C3621      C3622   1.403       .  A
C3621      H3624   1.085       .  S
C3622      C3625   1.445       .  S
C3625      N3627   1.158       .  T
C3626      N3628   1.157       .  T
C3629      C3630   1.407       .  A
C3629      C3634   1.417       .  A
C3630      C3631   1.403       .  A
C3630      H3635   1.084       .  S
C3631      C3632   1.409       .  A
C3631      C3638   1.444       .  S
C3632      C3633   1.401       .  A
C3633      C3634   1.400       .  A
C3633      H3636   1.085       .  S
C3634      C3637   1.445       .  S
C3637      N3639   1.158       .  T
C3638      N3640   1.157       .  T
C3641      C3642   1.403       .  A
C3641      C3646   1.410       .  A
C3642      C3643   1.402       .  A
C3642      H3647   1.085       .  S
C3643      C3644   1.413       .  A
C3643      C3650   1.444       .  S
C3644      C3645   1.403       .  A
C3645      C3646   1.399       .  A
C3645      H3648   1.085       .  S
C3646      C3649   1.443       .  S
C3649      N3651   1.157       .  T
C3650      N3652   1.157       .  T
C3653      C3654   1.398       .  A
C3653      C3658   1.406       .  A
C3654      C3655   1.397       .  A
C3654      H3659   1.086       .  S
C3655      C3656   1.420       .  A
C3655      C3662   1.445       .  S
C3656      C3657   1.410       .  A
C3657      C3658   1.403       .  A
C3657      H3660   1.084       .  S
C3658      C3661   1.444       .  S
C3661      N3663   1.157       .  T
C3662      N3664   1.157       .  T
C3665      C3666   1.400       .  A
C3665      C3670   1.411       .  A
C3666      C3667   1.395       .  A
C3666      H3671   1.086       .  S
C3667      C3668   1.415       .  A
C3667      C3674   1.444       .  S
C3668      C3669   1.408       .  A
C3669      C3670   1.409       .  A
C3669      H3672   1.084       .  S
C3670      C3673   1.443       .  S
C3673      N3675   1.157       .  T
C3674      N3676   1.157       .  T
C3677      C3678   1.402       .  A
C3677      C3682   1.412       .  A
C3678      C3679   1.401       .  A
C3678      H3683   1.085       .  S
C3679      C3680   1.415       .  A
C3679      C3686   1.444       .  S
C3680      C3681   1.403       .  A
C3681      C3682   1.400       .  A
C3681      H3684   1.085       .  S
C3682      C3685   1.445       .  S
C3685      N3687   1.157       .  T
C3686      N3688   1.157       .  T
C3689      C3690   1.405       .  A
C3689      C3694   1.415       .  A
C3690      C3691   1.403       .  A
C3690      H3695   1.085       .  S
C3691      C3692   1.410       .  A
C3691      C3698   1.444       .  S
C3692      C3693   1.400       .  A
C3693      C3694   1.397       .  A
C3693      H3696   1.085       .  S
C3694      C3697   1.446       .  S
C3697      N3699   1.157       .  T
C3698      N3700   1.157       .  T
C3701      C3702   1.400       .  A
C3701      C3706   1.409       .  A
C3702      C3703   1.397       .  A
C3702      H3707   1.086       .  S
C3703      C3704   1.417       .  A
C3703      C3710   1.445       .  S
C3704      C3705   1.406       .  A
C3705      C3706   1.403       .  A
C3705      H3708   1.085       .  S
C3706      C3709   1.443       .  S
C3709      N3711   1.157       .  T
C3710      N3712   1.158       .  T
