geometry optimzed in LAMMPS
_audit_creation_date              2020-12-01 
_audit_creation_method            'lammps2cif' 
_symmetry_space_group_name_H-M    'P1' 
_symmetry_Int_Tables_number       1 
_symmetry_cell_setting            triclinic 
loop_ 
_symmetry_equiv_pos_as_xyz 
  x,y,z 
_cell_length_a                    85.35115684 
_cell_length_b                    85.20600564400007 
_cell_length_c                    34.64040030496118 
_cell_angle_alpha                 89.99815487020075 
_cell_angle_beta                  89.97363693431362 
_cell_angle_gamma                 90.01065740032455 
loop_ 
_atom_site_label 
_atom_site_type_symbol 
_atom_site_fract_x 
_atom_site_fract_y 
_atom_site_fract_z 
_atom_site_charge 
O1          O  0.86630629  0.26958734  0.46165764    -0.85700
O2          O  0.85036764  0.25466185  0.40308791    -0.82700
C3          C  0.84510135  0.24373608  0.38224265     0.97800
O4          O  0.84287262  0.23017487  0.39619135    -0.82700
O5          O  0.87249150  0.21818898  0.40933345    -0.85400
C6          C  0.88595225  0.21706534  0.42425031     1.02300
O7          O  0.88835438  0.22175941  0.45844261    -0.78100
O8          O  0.88642834  0.25376651  0.45766409    -0.78300
C9          C  0.88066049  0.26728565  0.45403086     1.02300
O10         O  0.84467175  0.25536376  0.51598357    -0.85700
O11         O  0.82732457  0.24343388  0.45639623    -0.82700
C12         C  0.82323646  0.23000680  0.46845397     0.97800
O13         O  0.83329718  0.21919519  0.47134891    -0.82800
O14         O  0.86244969  0.20503758  0.48068959    -0.85400
C15         C  0.86681717  0.20740752  0.51509499     1.02300
O16         O  0.86928238  0.22117449  0.52691437    -0.78200
O17         O  0.86961932  0.25348825  0.52982670    -0.78300
C18         C  0.85571505  0.25668231  0.53985255     1.02300
Cr19       Cr  0.84808654  0.25445391  0.45965262     1.93700
Cr20       Cr  0.85319563  0.21955575  0.44124911     1.93200
Cr21       Cr  0.87701759  0.23753846  0.49109740     1.39100
O22         O  0.85948363  0.23717274  0.46381944    -1.23400
O23         O  0.63718054  0.26945995  0.55130879    -0.85700
O24         O  0.65069649  0.25516291  0.61426649    -0.82700
C25         C  0.65450426  0.24414756  0.63676514     0.97800
O26         O  0.65860612  0.23089498  0.62339448    -0.82700
O27         O  0.63069206  0.21734873  0.60223394    -0.85400
C28         C  0.61798386  0.21574304  0.58400392     1.02300
O29         O  0.61674700  0.22080746  0.54984096    -0.78100
O30         O  0.61748983  0.25309030  0.55325745    -0.78300
C31         C  0.62279879  0.26680420  0.55733509     1.02300
O32         O  0.66114719  0.25613300  0.50277666    -0.85700
O33         O  0.67633692  0.24493039  0.56770298    -0.82700
C34         C  0.68159481  0.23200338  0.55537525     0.97800
O35         O  0.67232564  0.22063059  0.55028052    -0.82800
O36         O  0.64441220  0.20529202  0.53288931    -0.85400
C37         C  0.64077014  0.20768238  0.49790669     1.02300
O38         O  0.63785659  0.22140659  0.48623292    -0.78200
O39         O  0.63666140  0.25374115  0.48475339    -0.78300
C40         C  0.65068180  0.25752480  0.47723670     1.02300
Cr41       Cr  0.65556710  0.25504769  0.55845194     1.93700
Cr42       Cr  0.65116739  0.21991446  0.57528599     1.93200
Cr43       Cr  0.62849251  0.23730366  0.52095534     1.39100
O44         O  0.64504879  0.23734742  0.55162919    -1.23400
O45         O  0.83919610  0.28079830  0.01843543    -0.85700
O46         O  0.82405029  0.29333401  0.95490299    -0.82700
C47         C  0.82006509  0.30678250  0.96673612     0.97800
O48         O  0.83039692  0.31709657  0.97284463    -0.82700
O49         O  0.85976740  0.32983698  0.98923715    -0.85400
C50         C  0.86333586  0.32645921  0.02381244     1.02300
O51         O  0.86570290  0.31240598  0.03356995    -0.78100
O52         O  0.86418432  0.28042768  0.03256617    -0.78300
C53         C  0.85003436  0.27919521  0.04288731     1.02300
O54         O  0.86119569  0.26543101  0.96723500    -0.85700
O55         O  0.84798223  0.28118040  0.90630772    -0.82700
C56         C  0.84502941  0.29268152  0.88452327     0.97800
O57         O  0.84229028  0.30619198  0.89852325    -0.82800
O58         O  0.87133134  0.31713765  0.91756949    -0.85400
C59         C  0.88454581  0.31705808  0.93382817     1.02300
O60         O  0.88590519  0.31210319  0.96799871    -0.78200
O61         O  0.88203022  0.28018726  0.96209131    -0.78300
C62         C  0.87551477  0.26699313  0.95841609     1.02300
Cr63       Cr  0.84396896  0.28141053  0.96230944     1.93700
Cr64       Cr  0.85121878  0.31621065  0.94636435     1.93200
Cr65       Cr  0.87317890  0.29638595  0.99686347     1.39100
O66         O  0.85612512  0.29810095  0.96840230    -1.23400
O67         O  0.65219569  0.27712726  0.00929610    -0.85700
O68         O  0.67357011  0.29834444  0.03470315    -0.82700
C69         C  0.67938904  0.31097481  0.04679268     0.97800
O70         O  0.67133662  0.31992720  0.06818311    -0.82700
O71         O  0.64730075  0.33088567  0.02098455    -0.85400
C72         C  0.63450046  0.33143106  0.00284271     1.02300
O73         O  0.62372828  0.32161154  0.01004739    -0.78100
O74         O  0.63560341  0.29373978  0.98275841    -0.78300
C75         C  0.64530937  0.28266899  0.97978477     1.02300
O76         O  0.64111693  0.27376015  0.08854608    -0.85700
O77         O  0.66367428  0.29366630  0.11446179    -0.82700
C78         C  0.65676039  0.30257628  0.13844996     0.97800
O79         O  0.64823966  0.31367368  0.12675413    -0.82800
O80         O  0.62536030  0.32773071  0.08416969    -0.85400
C81         C  0.61355805  0.31906074  0.09062319     1.02300
O82         O  0.61323453  0.30524132  0.07780216    -0.78200
O83         O  0.62239874  0.27702386  0.04634286    -0.78300
C84         C  0.62829001  0.26945141  0.07417646     1.02300
Cr85       Cr  0.65661520  0.28695517  0.06125770     1.93700
Cr86       Cr  0.64779366  0.32159245  0.07348159     1.93200
Cr87       Cr  0.62517830  0.29963241  0.03117999     1.39100
O88         O  0.64326758  0.30266141  0.05519520    -1.23400
O89         O  0.51113941  0.41379651  0.78104140    -0.85700
O90         O  0.52749901  0.43916371  0.75392425    -0.82700
C91         C  0.53795200  0.44719406  0.73752816     0.97800
O92         O  0.54633281  0.44099837  0.71146680    -0.82700
O93         O  0.56353372  0.41758046  0.74925008    -0.85400
C94         C  0.56665790  0.40451732  0.76467162     1.02300
O95         O  0.55832647  0.39259051  0.75750660    -0.78100
O96         O  0.53173428  0.39987581  0.79739146    -0.78300
C97         C  0.51974684  0.40761471  0.80670779     1.02300
O98         O  0.50425947  0.40501366  0.70219357    -0.85700
O99         O  0.51902646  0.43111245  0.67533340    -0.82700
C100        C  0.52687827  0.42624711  0.64662845     0.97800
O101        O  0.53956042  0.41889825  0.65146497    -0.82800
O102        O  0.55938948  0.39704977  0.68319611    -0.85400
C103        C  0.55233309  0.38408832  0.67793550     1.02300
O104        O  0.53951095  0.38150776  0.69485288    -0.78200
O105        O  0.51275359  0.38578404  0.73832154    -0.78300
C106        C  0.50279896  0.39125407  0.71488408     1.02300
Cr107      Cr  0.51684581  0.42143099  0.72793979     1.93700
Cr108      Cr  0.55098323  0.41811192  0.70075013     1.93200
Cr109      Cr  0.53542422  0.39140724  0.74538614     1.39100
O110        O  0.53433532  0.41034532  0.72462860    -1.23400
O111        O  0.51156424  0.61162929  0.74182730    -0.85700
O112        O  0.52418327  0.59593196  0.80420002    -0.82700
C113        C  0.53741047  0.59200122  0.79104102     0.97800
O114        O  0.54785035  0.60234356  0.78634078    -0.82700
O115        O  0.56053751  0.63161076  0.77025107    -0.85400
C116        C  0.55714199  0.63539937  0.73585925     1.02300
O117        O  0.54312751  0.63818274  0.72644353    -0.78100
O118        O  0.51101749  0.63668634  0.72840526    -0.78300
C119        C  0.50951999  0.62256953  0.71779867     1.02300
O120        O  0.49642862  0.63332901  0.79436342    -0.85700
O121        O  0.51254395  0.61975449  0.85417076    -0.82700
C122        C  0.52397876  0.61626011  0.87562173     0.97800
O123        O  0.53749158  0.61393602  0.86135006    -0.82800
O124        O  0.54881282  0.64339549  0.84238727    -0.85400
C125        C  0.54914259  0.65655454  0.82553118     1.02300
O126        O  0.54315109  0.65805786  0.79239768    -0.78200
O127        O  0.51097991  0.65435053  0.79906946    -0.78300
C128        C  0.49781570  0.64773541  0.80271141     1.02300
Cr129      Cr  0.51244072  0.61607842  0.79809701     1.93700
Cr130      Cr  0.54723538  0.62314150  0.81342091     1.93200
Cr131      Cr  0.52719172  0.64550226  0.76388958     1.39100
O132        O  0.52905583  0.62829015  0.79202598    -1.23400
O133        O  0.50211267  0.40519478  0.23571096    -0.85700
O134        O  0.48852394  0.41812837  0.17156499    -0.82700
C135        C  0.47803601  0.42184584  0.14766943     0.97800
O136        O  0.46431144  0.42518490  0.15915086    -0.82700
O137        O  0.45200354  0.39613500  0.17506224    -0.85400
C138        C  0.45073738  0.38296527  0.19139481     1.02300
O139        O  0.45544807  0.38105858  0.22571396    -0.78100
O140        O  0.48750409  0.38439508  0.22836995    -0.78300
C141        C  0.50079308  0.39082207  0.22750333     1.02300
O142        O  0.48593056  0.42736531  0.28254998    -0.85700
O143        O  0.47542843  0.44265617  0.21779901    -0.82700
C144        C  0.46193821  0.44668441  0.22905085     0.97800
O145        O  0.45119555  0.43658520  0.23149307    -0.82800
O146        O  0.43743899  0.40760463  0.24327737    -0.85400
C147        C  0.43921970  0.40355852  0.27815343     1.02300
O148        O  0.45270022  0.40102736  0.29159222    -0.78200
O149        O  0.48452212  0.40250595  0.29903932    -0.78300
C150        C  0.48724666  0.41672134  0.30761088     1.02300
Cr151      Cr  0.48667820  0.42247035  0.22705850     1.93700
Cr152      Cr  0.45257489  0.41607725  0.20430626     1.93200
Cr153      Cr  0.47007453  0.39353342  0.25891283     1.39100
O154        O  0.46967503  0.41065386  0.23015521    -1.23400
O155        O  0.50196248  0.63491319  0.29968280    -0.85700
O156        O  0.48890062  0.61641713  0.35579542    -0.82700
C157        C  0.47847652  0.61034770  0.37685959     0.97800
O158        O  0.46485615  0.60768208  0.36365866    -0.82700
O159        O  0.45051971  0.63654134  0.35419834    -0.85400
C160        C  0.44847225  0.65019426  0.34096138     1.02300
O161        O  0.45267726  0.65340178  0.30690270    -0.78100
O162        O  0.48491629  0.65361516  0.31020451    -0.78300
C163        C  0.49879782  0.64858392  0.31180420     1.02300
O164        O  0.48895151  0.61399884  0.24203852    -0.85700
O165        O  0.47897420  0.59424441  0.29964518    -0.82700
C166        C  0.46578440  0.58939924  0.28818797     0.97800
O167        O  0.45412446  0.59851847  0.28787697    -0.82800
O168        O  0.43818349  0.62683417  0.28025051    -0.85400
C169        C  0.44079005  0.63186841  0.24633301     1.02300
O170        O  0.45435029  0.63611230  0.23650675    -0.78200
O171        O  0.48612926  0.63931351  0.23520187    -0.78300
C172        C  0.48954588  0.62607658  0.22109299     1.02300
Cr173      Cr  0.48833100  0.61566808  0.29912614     1.93700
Cr174      Cr  0.45323615  0.61796785  0.31978228     1.93200
Cr175      Cr  0.46956909  0.64421641  0.27412726     1.39100
O176        O  0.47032212  0.62591799  0.29792698    -1.23400
O177        O  0.36844387  0.77489239  0.98460231    -0.85700
O178        O  0.35256574  0.75958817  0.92701958    -0.82700
C179        C  0.34787881  0.74839399  0.90624742     0.97800
O180        O  0.34546409  0.73493057  0.92074869    -0.82700
O181        O  0.37476906  0.72284973  0.93632381    -0.85400
C182        C  0.38815498  0.72201281  0.95173066     1.02300
O183        O  0.39008760  0.72667286  0.98608427    -0.78100
O184        O  0.38825192  0.75867728  0.98005094    -0.78300
C185        C  0.38264077  0.77224390  0.97579944     1.02300
O186        O  0.34657237  0.76155245  0.03986062    -0.85700
O187        O  0.32912733  0.74902391  0.97996463    -0.82700
C188        C  0.32504537  0.73571753  0.99274781     0.97800
O189        O  0.33509192  0.72497564  0.99680230    -0.82800
O190        O  0.36381304  0.71091235  0.00944609    -0.85400
C191        C  0.36746902  0.71411149  0.04404275     1.02300
O192        O  0.37067690  0.72802202  0.05363863    -0.78200
O193        O  0.37168138  0.76030357  0.05215648    -0.78300
C194        C  0.35790638  0.76385385  0.06248221     1.02300
Cr195      Cr  0.35002187  0.75993856  0.98338691     1.93700
Cr196      Cr  0.35519174  0.72478111  0.96746166     1.93200
Cr197      Cr  0.37882076  0.74336293  0.01592992     1.39100
O198        O  0.36134194  0.74265591  0.98875134    -1.23400
O199        O  0.13976837  0.77150929  0.05041187    -0.85700
O200        O  0.15328786  0.75555241  0.11099457    -0.82700
C201        C  0.15731269  0.74410190  0.13189224     0.97800
O202        O  0.16001014  0.73077472  0.11689167    -0.82700
O203        O  0.13074512  0.71956759  0.09860782    -0.85400
C204        C  0.11746572  0.71929290  0.08253457     1.02300
O205        O  0.11581219  0.72455459  0.04859470    -0.78100
O206        O  0.11891217  0.75669667  0.05351079    -0.78300
C207        C  0.12534798  0.76989888  0.05792010     1.02300
O208        O  0.16189821  0.75702600  0.99886546    -0.85700
O209        O  0.17743019  0.74428331  0.06152466    -0.82700
C210        C  0.18153967  0.73119268  0.04777037     0.97800
O211        O  0.17134174  0.72073670  0.04149349    -0.82800
O212        O  0.14209625  0.70729004  0.02678721    -0.85400
C213        C  0.13842395  0.71047329  0.99222529     1.02300
O214        O  0.13591594  0.72448542  0.98220481    -0.78200
O215        O  0.13701859  0.75679307  0.98298190    -0.78300
C216        C  0.15121086  0.75944329  0.97440940     1.02300
Cr217      Cr  0.15718569  0.75582150  0.05482264     1.93700
Cr218      Cr  0.15071990  0.72095946  0.06919575     1.93200
Cr219      Cr  0.12823561  0.74052724  0.01907496     1.39100
O220        O  0.14531279  0.73904097  0.04782179    -1.23400
O221        O  0.34547099  0.77909545  0.53984503    -0.85700
O222        O  0.32964192  0.79264853  0.47850118    -0.82700
C223        C  0.32605247  0.80611449  0.49111273     0.97800
O224        O  0.33657785  0.81632167  0.49612483    -0.82700
O225        O  0.36578564  0.82877371  0.51234171    -0.85400
C226        C  0.36909280  0.82538567  0.54706514     1.02300
O227        O  0.37122715  0.81127561  0.55686016    -0.78100
O228        O  0.37042506  0.77887038  0.55434543    -0.78300
C229        C  0.35634216  0.77604163  0.56329749     1.02300
O230        O  0.36737253  0.76476822  0.48639674    -0.85700
O231        O  0.35330621  0.78100873  0.42758074    -0.82700
C232        C  0.34963559  0.79247896  0.40646272     0.97800
O233        O  0.34782574  0.80605346  0.42091329    -0.82800
O234        O  0.37741858  0.81662130  0.44028884    -0.85400
C235        C  0.39040103  0.81719359  0.45772368     1.02300
O236        O  0.39156261  0.81178686  0.49158493    -0.78200
O237        O  0.38817965  0.77978357  0.48420679    -0.78300
C238        C  0.38184576  0.76656086  0.47926008     1.02300
Cr239      Cr  0.34986517  0.78067615  0.48372232     1.93700
Cr240      Cr  0.35719476  0.81552253  0.46905938     1.93200
Cr241      Cr  0.37901038  0.79554519  0.51948340     1.39100
O242        O  0.36202811  0.79729488  0.49058658    -1.23400
O243        O  0.16398873  0.78392663  0.49951867    -0.85700
O244        O  0.17888585  0.79720276  0.56227843    -0.82700
C245        C  0.18290284  0.81044483  0.54902460     0.97800
O246        O  0.17268043  0.82089716  0.54324990    -0.82700
O247        O  0.14401868  0.83372654  0.52444491    -0.85400
C248        C  0.14141411  0.83038866  0.48938034     1.02300
O249        O  0.13928474  0.81632594  0.47925947    -0.78100
O250        O  0.13934836  0.78394767  0.48228921    -0.78300
C251        C  0.15358471  0.78140280  0.47444780     1.02300
O252        O  0.14078446  0.76997924  0.55096831    -0.85700
O253        O  0.15417695  0.78611710  0.61112792    -0.82700
C254        C  0.15748981  0.79771480  0.63225611     0.97800
O255        O  0.16006091  0.81108567  0.61745807    -0.82800
O256        O  0.13086067  0.82198141  0.59523646    -0.85400
C257        C  0.11817736  0.82257790  0.57640811     1.02300
O258        O  0.11770877  0.81741250  0.54220674    -0.78200
O259        O  0.12034784  0.78551550  0.55044295    -0.78300
C260        C  0.12626416  0.77221432  0.55676965     1.02300
Cr261      Cr  0.15858938  0.78554982  0.55522096     1.93700
Cr262      Cr  0.15163211  0.82053334  0.56851244     1.93200
Cr263      Cr  0.13045792  0.80088081  0.51592210     1.39100
O264        O  0.14687299  0.80235581  0.54678837    -1.23400
O265        O  0.99327603  0.40387760  0.78265365    -0.85700
O266        O  0.00731718  0.41791195  0.84491678    -0.82700
C267        C  0.01812415  0.42199752  0.86764898     0.97800
O268        O  0.03156400  0.42575845  0.85475068    -0.82700
O269        O  0.04570908  0.39790172  0.83632046    -0.85400
C270        C  0.04712464  0.38462596  0.82060459     1.02300
O271        O  0.04138669  0.38212266  0.78746047    -0.78100
O272        O  0.00893895  0.38385729  0.78981064    -0.78300
C273        C  0.99534088  0.38962452  0.79122899     1.02300
O274        O  0.00747663  0.42661364  0.73312085    -0.85700
O275        O  0.01790499  0.44287225  0.79744002    -0.82700
C276        C  0.03088788  0.44794979  0.78536080     0.97800
O277        O  0.04209652  0.43851034  0.78055265    -0.82800
O278        O  0.05735798  0.41043785  0.76539881    -0.85400
C279        C  0.05474427  0.40598174  0.73108743     1.02300
O280        O  0.04117111  0.40197215  0.72067451    -0.78200
O281        O  0.00911833  0.40160245  0.71845894    -0.78300
C282        C  0.00562332  0.41558599  0.70921069     1.02300
Cr283      Cr  0.00788954  0.42201124  0.78912995     1.93700
Cr284      Cr  0.04279151  0.41773723  0.80734753     1.93200
Cr285      Cr  0.02517110  0.39371406  0.75641699     1.39100
O286        O  0.02541437  0.41109042  0.78441207    -1.23400
O287        O  0.00586499  0.63207193  0.69322679    -0.85700
O288        O  0.02347500  0.60799879  0.66627437    -0.82700
C289        C  0.03169640  0.61443919  0.64010231     0.97800
O290        O  0.04364719  0.62238681  0.64904382    -0.82700
O291        O  0.06120002  0.64382288  0.68966231    -0.85400
C292        C  0.05390296  0.65654185  0.68406579     1.02300
O293        O  0.04041252  0.65841627  0.69826689    -0.78100
O294        O  0.01164576  0.65154844  0.73181052    -0.78300
C295        C  0.00289927  0.64551214  0.70628850     1.02300
O296        O  0.00990894  0.62170942  0.77229329    -0.85700
O297        O  0.02939512  0.59852250  0.74566322    -0.82700
C298        C  0.04085372  0.59160220  0.73041325     0.97800
O299        O  0.04956589  0.59893010  0.70696453    -0.82800
O300        O  0.06402784  0.62212481  0.75205629    -0.85400
C301        C  0.06501194  0.63452021  0.77204501     1.02300
O302        O  0.05614813  0.64613959  0.76542713    -0.78200
O303        O  0.02829094  0.63709924  0.79510540    -0.78300
C304        C  0.01678152  0.62813716  0.80064421     1.02300
Cr305      Cr  0.01851240  0.61604610  0.71967738     1.93700
Cr306      Cr  0.05319658  0.62221644  0.70112393     1.93200
Cr307      Cr  0.03413328  0.64685585  0.74562511     1.39100
O308        O  0.03522315  0.62837730  0.72225411    -1.23400
O309        O  0.99856413  0.41486324  0.24479070    -0.85700
O310        O  0.97927444  0.43948814  0.26223306    -0.82700
C311        C  0.96737920  0.44707121  0.27285288     0.97800
O312        O  0.95729806  0.44058996  0.29453190    -0.82700
O313        O  0.94399205  0.41517180  0.25444394    -0.85400
C314        C  0.94255612  0.40153840  0.24052041     1.02300
O315        O  0.95172022  0.39069575  0.25111549    -0.78100
O316        O  0.98008220  0.39962228  0.22161590    -0.78300
C317        C  0.99213034  0.40792419  0.21652727     1.02300
O318        O  0.00020320  0.40756228  0.32643422    -0.85700
O319        O  0.98249646  0.43319090  0.34386288    -0.82700
C320        C  0.97281358  0.42862040  0.36926530     0.97800
O321        O  0.96115973  0.42033995  0.36000598    -0.82800
O322        O  0.94548734  0.39640732  0.32405857    -0.85400
C323        C  0.95287609  0.38401601  0.33334119     1.02300
O324        O  0.96668969  0.38190147  0.32139350    -0.78200
O325        O  0.99575652  0.38762255  0.28842247    -0.78300
C326        C  0.00372040  0.39403346  0.31482841     1.02300
Cr327      Cr  0.98878329  0.42281456  0.29405920     1.93700
Cr328      Cr  0.95341059  0.41767137  0.30684195     1.93200
Cr329      Cr  0.97350408  0.39147872  0.27217064     1.39100
O330        O  0.97193124  0.41071409  0.29107502    -1.23400
O331        O  0.99633555  0.62150233  0.26770791    -0.85700
O332        O  0.97649145  0.59842338  0.24127671    -0.82700
C333        C  0.96437443  0.59191806  0.22802577     0.97800
O334        O  0.95488565  0.59976593  0.20754006    -0.82700
O335        O  0.94142221  0.62237188  0.25570388    -0.85400
C336        C  0.94063036  0.63451933  0.27653634     1.02300
O337        O  0.94988521  0.64593940  0.27124556    -0.78100
O338        O  0.97829460  0.63580429  0.29589018    -0.78300
C339        C  0.99021729  0.62715621  0.29809892     1.02300
O340        O  0.99806301  0.63356632  0.18929363    -0.85700
O341        O  0.98020837  0.60952874  0.16258732    -0.82700
C342        C  0.97104856  0.61611518  0.13870195     0.97800
O343        O  0.95953414  0.62401900  0.15062423    -0.82800
O344        O  0.94340696  0.64508647  0.19535348    -0.85400
C345        C  0.95067373  0.65791694  0.19077132     1.02300
O346        O  0.96439373  0.65943924  0.20384232    -0.78200
O347        O  0.99371438  0.65160551  0.23284094    -0.78300
C348        C  0.00144101  0.64659612  0.20418432     1.02300
Cr349      Cr  0.98643842  0.61672145  0.21593017     1.93700
Cr350      Cr  0.95130634  0.62316450  0.20384863     1.93200
Cr351      Cr  0.97149121  0.64676217  0.24875661     1.39100
O352        O  0.96975685  0.62882915  0.22303828    -1.23400
O353        O  0.50580102  0.13133906  0.20020653    -0.85700
O354        O  0.52312785  0.10733645  0.16968967    -0.82700
C355        C  0.53200933  0.11401596  0.14541363     0.97800
O356        O  0.54370095  0.12178880  0.15664893    -0.82700
O357        O  0.56018389  0.14281747  0.20040132    -0.85400
C358        C  0.55261847  0.15562047  0.19906754     1.02300
O359        O  0.53932324  0.15666040  0.21484737    -0.78100
O360        O  0.51095176  0.14788245  0.24670164    -0.78300
C361        C  0.50268269  0.14381745  0.21810452     1.02300
O362        O  0.50873692  0.11804528  0.27674067    -0.85700
O363        O  0.52811894  0.09541773  0.24674945    -0.82700
C364        C  0.54032680  0.08916422  0.23324956     0.97800
O365        O  0.54958853  0.09710916  0.21225422    -0.82800
O366        O  0.56409037  0.11939049  0.25896373    -0.85400
C367        C  0.56526989  0.13131934  0.28036412     1.02300
O368        O  0.55547412  0.14239405  0.27802798    -0.78200
O369        O  0.52779548  0.13083897  0.30513168    -0.78300
C370        C  0.51551530  0.12268657  0.30725222     1.02300
Cr371      Cr  0.51783550  0.11396223  0.22388589     1.93700
Cr372      Cr  0.55289645  0.12058633  0.20877329     1.93200
Cr373      Cr  0.53344707  0.14305302  0.25887733     1.39100
O374        O  0.53475747  0.12581226  0.23054973    -1.23400
O375        O  0.50597568  0.90230393  0.33125490    -0.85700
O376        O  0.52258186  0.92773832  0.35705056    -0.82700
C377        C  0.53255755  0.92265597  0.38109666     0.97800
O378        O  0.54449281  0.91531079  0.36969287    -0.82700
O379        O  0.56014548  0.89321403  0.32843660    -0.85400
C380        C  0.55262975  0.88048212  0.33351226     1.02300
O381        O  0.53932772  0.87849454  0.31829999    -0.78100
O382        O  0.51058963  0.88554704  0.28506807    -0.78300
C383        C  0.50258302  0.88975335  0.31401183     1.02300
O384        O  0.50762878  0.91407904  0.25251477    -0.85700
O385        O  0.52588230  0.93804403  0.27802212    -0.82700
C386        C  0.53801107  0.94523057  0.28869174     0.97800
O387        O  0.54822486  0.93827530  0.30904783    -0.82800
O388        O  0.56207191  0.91514219  0.26390587    -0.85400
C389        C  0.56404283  0.90235025  0.24631836     1.02300
O390        O  0.55519796  0.89081351  0.25323925    -0.78200
O391        O  0.52705883  0.90163098  0.22447525    -0.78300
C392        C  0.51468648  0.90968182  0.22209940     1.02300
Cr393      Cr  0.51686154  0.91967305  0.30431859     1.93700
Cr394      Cr  0.55234564  0.91504382  0.31619209     1.93200
Cr395      Cr  0.53306738  0.89051607  0.27221946     1.39100
O396        O  0.53409286  0.90846581  0.29786166    -1.23400
O397        O  0.49381993  0.12428751  0.78210042    -0.85700
O398        O  0.47545469  0.10073512  0.75402401    -0.82700
C399        C  0.46375688  0.09396611  0.73953042     0.97800
O400        O  0.45509438  0.10115196  0.71567481    -0.82700
O401        O  0.44025052  0.12511770  0.75609876    -0.85400
C402        C  0.43816741  0.13813636  0.77269620     1.02300
O403        O  0.44766155  0.14930473  0.76712584    -0.78100
O404        O  0.47413983  0.13844782  0.80334483    -0.78300
C405        C  0.48592707  0.12993794  0.80990049     1.02300
O406        O  0.49932482  0.13447300  0.70328871    -0.85700
O407        O  0.48263383  0.10958655  0.67543689    -0.82700
C408        C  0.47440675  0.11523969  0.64830383     0.97800
O409        O  0.46249150  0.12342840  0.65577573    -0.82800
O410        O  0.44551270  0.14618307  0.69181788    -0.85400
C411        C  0.45354601  0.15859466  0.68735866     1.02300
O412        O  0.46644551  0.16023470  0.70472594    -0.78200
O413        O  0.49348200  0.15264624  0.74528458    -0.78300
C414        C  0.50252005  0.14728107  0.71951951     1.02300
Cr415      Cr  0.48650903  0.11821254  0.72874282     1.93700
Cr416      Cr  0.45215663  0.12435018  0.70668287     1.93200
Cr417      Cr  0.47043755  0.14874503  0.75327143     1.39100
O418        O  0.46972092  0.13037994  0.72947069    -1.23400
O419        O  0.49805268  0.91929351  0.74857905    -0.85700
O420        O  0.47997445  0.94316502  0.77565900    -0.82700
C421        C  0.46868561  0.95056235  0.79016274     0.97800
O422        O  0.45943706  0.94369277  0.81326385    -0.82700
O423        O  0.44412610  0.92057462  0.77005268    -0.85400
C424        C  0.44239230  0.90796222  0.75137758     1.02300
O425        O  0.45099132  0.89619312  0.75811524    -0.78100
O426        O  0.47854200  0.90519032  0.72635140    -0.78300
C427        C  0.49041709  0.91361525  0.72039087     1.02300
O428        O  0.50210866  0.90876651  0.82788660    -0.85700
O429        O  0.48571008  0.93378042  0.85501676    -0.82700
C430        C  0.47698653  0.92804882  0.88117886     0.97800
O431        O  0.46478632  0.92053279  0.87229794    -0.82800
O432        O  0.44700456  0.89902934  0.83366405    -0.85400
C433        C  0.45430072  0.88627269  0.83940752     1.02300
O434        O  0.46749272  0.88403444  0.82383880    -0.78200
O435        O  0.49580208  0.89024475  0.78719545    -0.78300
C436        C  0.50478766  0.89557486  0.81308511     1.02300
Cr437      Cr  0.49010344  0.92534879  0.80160728     1.93700
Cr438      Cr  0.45519397  0.92052696  0.82057575     1.93200
Cr439      Cr  0.47324974  0.89531984  0.77586149     1.39100
O440        O  0.47288860  0.91376128  0.79936158    -1.23400
O441        O  0.86682719  0.77602712  0.07239799    -0.85700
O442        O  0.84150794  0.79244777  0.09930271    -0.82700
C443        C  0.84721595  0.80204160  0.12359146     0.97800
O444        O  0.85470784  0.81391784  0.11222626    -0.82700
O445        O  0.87472856  0.83155777  0.06807568    -0.85400
C446        C  0.88788857  0.82492536  0.07254106     1.02300
O447        O  0.89020409  0.81141599  0.05880444    -0.78100
O448        O  0.88436150  0.78202684  0.02871128    -0.78300
C449        C  0.88003138  0.77374338  0.05710537     1.02300
O450        O  0.85491967  0.77740348  0.99428712    -0.85700
O451        O  0.83072484  0.79589467  0.02008600    -0.82700
C452        C  0.82343572  0.80757238  0.03331520     0.97800
O453        O  0.83033829  0.81712470  0.05556725    -0.82800
O454        O  0.85182452  0.83228468  0.00778694    -0.85400
C455        C  0.86386160  0.83400501  0.98704664     1.02300
O456        O  0.87589499  0.82559881  0.99220201    -0.78200
O457        O  0.86747788  0.79674439  0.96627962    -0.78300
C458        C  0.85985120  0.78413207  0.96395427     1.02300
Cr459      Cr  0.84931200  0.78681681  0.04600281     1.93700
Cr460      Cr  0.85337387  0.82228026  0.05934882     1.93200
Cr461      Cr  0.87809564  0.80392695  0.01361205     1.39100
O462        O  0.86025106  0.80430885  0.03963481    -1.23400
O463        O  0.63907319  0.77051029  0.94532304    -0.85700
O464        O  0.66422200  0.78709877  0.91739492    -0.82700
C465        C  0.65865459  0.79573889  0.89096504     0.97800
O466        O  0.65081147  0.80779257  0.89936358    -0.82700
O467        O  0.62851964  0.82482086  0.93710532    -0.85400
C468        C  0.61596882  0.81700576  0.93279439     1.02300
O469        O  0.61429303  0.80393852  0.94955606    -0.78100
O470        O  0.62159302  0.77645241  0.98892923    -0.78300
C471        C  0.62625180  0.76762024  0.96194652     1.02300
O472        O  0.65024616  0.77537038  0.02387176    -0.85700
O473        O  0.67373049  0.79351695  0.99610078    -0.82700
C474        C  0.68051129  0.80545396  0.98273878     0.97800
O475        O  0.67350445  0.81427954  0.95890402    -0.82800
O476        O  0.65000742  0.82921606  0.00086181    -0.85400
C477        C  0.63708579  0.83142491  0.01769846     1.02300
O478        O  0.62581031  0.82205971  0.01238667    -0.78200
O479        O  0.63648714  0.79499038  0.04728759    -0.78300
C480        C  0.64517284  0.78318174  0.05243288     1.02300
Cr481      Cr  0.65590457  0.78292429  0.97073300     1.93700
Cr482      Cr  0.65031765  0.81767194  0.95084725     1.93200
Cr483      Cr  0.62594950  0.79935789  0.99763484     1.39100
O484        O  0.64411808  0.79996928  0.97299015    -1.23400
O485        O  0.85366059  0.76426844  0.48915729    -0.85700
O486        O  0.83114579  0.74448687  0.51859694    -0.82700
C487        C  0.82477148  0.73293225  0.53498387     0.97800
O488        O  0.83263386  0.72452531  0.55811270    -0.82700
O489        O  0.85490895  0.70974551  0.51171427    -0.85400
C490        C  0.86668596  0.70878134  0.48970812     1.02300
O491        O  0.87825521  0.71792277  0.49383380    -0.78100
O492        O  0.86787754  0.74535653  0.46459529    -0.78300
C493        C  0.85917391  0.75711876  0.46007113     1.02300
O494        O  0.86557317  0.76850574  0.56690415    -0.85700
O495        O  0.84171454  0.75088783  0.59646349    -0.82700
C496        C  0.84851585  0.74286375  0.62237681     0.97800
O497        O  0.85693386  0.73126668  0.61315100    -0.82800
O498        O  0.87803176  0.71362625  0.57104309    -0.85400
C499        C  0.89073495  0.72125585  0.57355428     1.02300
O500        O  0.89187301  0.73456589  0.55792988    -0.78200
O501        O  0.88365073  0.76267986  0.52444210    -0.78300
C502        C  0.87871318  0.77121443  0.55174632     1.02300
Cr503      Cr  0.84898610  0.75572338  0.54240934     1.93700
Cr504      Cr  0.85598767  0.72117276  0.56174452     1.93200
Cr505      Cr  0.87903701  0.74010839  0.51238139     1.39100
O506        O  0.86133349  0.73902921  0.53878709    -1.23400
O507        O  0.65210076  0.76279961  0.51887655    -0.85700
O508        O  0.67500188  0.74275023  0.49248018    -0.82700
C509        C  0.68146668  0.73089747  0.47771245     0.97800
O510        O  0.67360540  0.72165747  0.45655506    -0.82700
O511        O  0.65157835  0.70761646  0.50585423    -0.85400
C512        C  0.63957234  0.70674978  0.52715196     1.02300
O513        O  0.62813994  0.71600982  0.52257961    -0.78100
O514        O  0.63879939  0.74419791  0.54781644    -0.78300
C515        C  0.64710402  0.75638448  0.54955713     1.02300
O516        O  0.63977310  0.76427079  0.44084587    -0.85700
O517        O  0.66393405  0.74665067  0.41376837    -0.82700
C518        C  0.65658812  0.73809839  0.38989521     0.97800
O519        O  0.64870862  0.72654682  0.40173820    -0.82800
O520        O  0.62831092  0.70996689  0.44687438    -0.85400
C521        C  0.61559502  0.71744949  0.44280704     1.02300
O522        O  0.61421250  0.73105354  0.45682849    -0.78200
O523        O  0.62257088  0.76007777  0.48651547    -0.78300
C524        C  0.62695542  0.76754003  0.45686008     1.02300
Cr525      Cr  0.65681239  0.75285178  0.46719811     1.93700
Cr526      Cr  0.65026624  0.71782944  0.45432540     1.93200
Cr527      Cr  0.62726597  0.73776116  0.50130174     1.39100
O528        O  0.64483026  0.73613263  0.47450798    -1.23400
O529        O  0.36830224  0.26984872  0.55361058    -0.85700
O530        O  0.35280441  0.28348280  0.61405973    -0.82700
C531        C  0.34804741  0.29410728  0.63653856     0.97800
O532        O  0.34372724  0.30729763  0.62324442    -0.82700
O533        O  0.37178165  0.32153707  0.60639048    -0.85400
C534        C  0.38493399  0.32339688  0.59039823     1.02300
O535        O  0.38699878  0.31913287  0.55582632    -0.78100
O536        O  0.38710068  0.28710666  0.55950034    -0.78300
C537        C  0.38232228  0.27318039  0.56237393     1.02300
O538        O  0.34503830  0.28239829  0.50148618    -0.85700
O539        O  0.32785773  0.29304206  0.56420630    -0.82700
C540        C  0.32253216  0.30610840  0.55284975     0.97800
O541        O  0.33164557  0.31765910  0.54891854    -0.82800
O542        O  0.35940604  0.33359855  0.53520925    -0.85400
C543        C  0.36333895  0.33108355  0.50044618     1.02300
O544        O  0.36709370  0.31749435  0.48950649    -0.78200
O545        O  0.36991503  0.28548468  0.48809231    -0.78300
C546        C  0.35631703  0.28116241  0.47807579     1.02300
Cr547      Cr  0.34916922  0.28355957  0.55794998     1.93700
Cr548      Cr  0.35209482  0.31871952  0.57657102     1.93200
Cr549      Cr  0.37645534  0.30225507  0.52532698     1.39100
O550        O  0.35920015  0.30159252  0.55327343    -1.23400
O551        O  0.14015694  0.26801603  0.48416842    -0.85700
O552        O  0.15186185  0.28313086  0.42075346    -0.82700
C553        C  0.15506050  0.29402743  0.39743240     0.97800
O554        O  0.15762245  0.30789995  0.40956760    -0.82700
O555        O  0.12882430  0.31954916  0.43057408    -0.85400
C556        C  0.11579908  0.31953358  0.44779170     1.02300
O557        O  0.11455764  0.31404412  0.48155777    -0.78100
O558        O  0.11894247  0.28208773  0.47876763    -0.78300
C559        C  0.12574200  0.26900565  0.47611870     1.02300
O560        O  0.16252670  0.28465315  0.53092635    -0.85700
O561        O  0.17657936  0.29609504  0.46506435    -0.82700
C562        C  0.18061335  0.30947813  0.47703589     0.97800
O563        O  0.17029060  0.31981383  0.48269145    -0.82800
O564        O  0.14122131  0.33264112  0.50010051    -0.85400
C565        C  0.13760644  0.32974188  0.53491486     1.02300
O566        O  0.13532273  0.31583220  0.54597787    -0.78200
O567        O  0.13782156  0.28385294  0.54821862    -0.78300
C568        C  0.15221802  0.28223886  0.55628851     1.02300
Cr569      Cr  0.15687477  0.28423907  0.47573756     1.93700
Cr570      Cr  0.14925226  0.31860994  0.45761036     1.93200
Cr571      Cr  0.12791064  0.29906299  0.51128491     1.39100
O572        O  0.14459508  0.30076940  0.48138484    -1.23400
O573        O  0.35538161  0.26058202  0.00551970    -0.85700
O574        O  0.33029096  0.24359993  0.03107517    -0.82700
C575        C  0.32231399  0.23271341  0.04570190     0.97800
O576        O  0.32853071  0.22355442  0.07003826    -0.82700
O577        O  0.35127819  0.20736869  0.02706408    -0.85400
C578        C  0.36417683  0.20455486  0.01051472     1.02300
O579        O  0.37626071  0.21246577  0.01873851    -0.78100
O580        O  0.36932906  0.24055080  0.98515692    -0.78300
C581        C  0.36178831  0.25294317  0.97827663     1.02300
O582        O  0.36500523  0.26501680  0.08502320    -0.85700
O583        O  0.33919873  0.24940132  0.11132437    -0.82700
C584        C  0.34414479  0.24038408  0.13794137     0.97800
O585        O  0.35130372  0.22786510  0.12970824    -0.82800
O586        O  0.37231812  0.20876852  0.09243968    -0.85400
C587        C  0.38544473  0.21533285  0.09847679     1.02300
O588        O  0.38806588  0.22879042  0.08479708    -0.78200
O589        O  0.38391579  0.25709422  0.04712832    -0.78300
C590        C  0.37865076  0.26663667  0.07184605     1.02300
Cr591      Cr  0.34827878  0.25324816  0.05817277     1.93700
Cr592      Cr  0.35137080  0.21819873  0.07813038     1.93200
Cr593      Cr  0.37792593  0.23485382  0.03575884     1.39100
O594        O  0.35918183  0.23554374  0.05743790    -1.23400
O595        O  0.14712694  0.26878650  0.02305227    -0.85700
O596        O  0.17180298  0.25058216  0.99997566    -0.82700
C597        C  0.17910225  0.23851211  0.98909632     0.97800
O598        O  0.17250006  0.22865043  0.96711549    -0.82700
O599        O  0.14938933  0.21431889  0.01122888    -0.85400
C600        C  0.13641408  0.21198790  0.02760983     1.02300
O601        O  0.12484258  0.22074487  0.02007548    -0.78100
O602        O  0.13399765  0.24930657  0.04915524    -0.78300
C603        C  0.14179004  0.26180065  0.05262794     1.02300
O604        O  0.13672370  0.27066241  0.94343137    -0.85700
O605        O  0.16253875  0.25396215  0.91984564    -0.82700
C606        C  0.15769807  0.24395977  0.89548460     0.97800
O607        O  0.15008173  0.23209017  0.90621750    -0.82800
O608        O  0.12813687  0.21553334  0.94601875    -0.85400
C609        C  0.11547595  0.22283923  0.93910170     1.02300
O610        O  0.11327108  0.23634154  0.95294392    -0.78200
O611        O  0.11882137  0.26511428  0.98637130    -0.78300
C612        C  0.12343718  0.27324783  0.95802701     1.02300
Cr613      Cr  0.15370955  0.25965341  0.97192248     1.93700
Cr614      Cr  0.14955916  0.22406468  0.95915491     1.93200
Cr615      Cr  0.12415458  0.24287513  0.00040001     1.39100
O616        O  0.14254548  0.24224438  0.97704689    -1.23400
O617        O  0.00170357  0.13177471  0.82653148    -0.85700
O618        O  0.98347669  0.10764172  0.85119457    -0.82700
C619        C  0.97465470  0.11413943  0.87596062     0.97800
O620        O  0.96331225  0.12253019  0.86529673    -0.82700
O621        O  0.94768499  0.14483780  0.82392690    -0.85400
C622        C  0.95557387  0.15724826  0.82937051     1.02300
O623        O  0.96918360  0.15846845  0.81545115    -0.78100
O624        O  0.99773596  0.15009006  0.78349206    -0.78300
C625        C  0.00553425  0.14463506  0.81148145     1.02300
O626        O  0.99940387  0.12125206  0.74722945    -0.85700
O627        O  0.97908310  0.09835945  0.77142150    -0.82700
C628        C  0.96680679  0.09196417  0.78399672     0.97800
O629        O  0.95769204  0.09948410  0.80616989    -0.82800
O630        O  0.94455962  0.12307205  0.76132539    -0.85400
C631        C  0.94387244  0.13560003  0.74198676     1.02300
O632        O  0.95341180  0.14668651  0.74821122    -0.78200
O633        O  0.98107957  0.13573901  0.72083650    -0.78300
C634        C  0.99302449  0.12719580  0.71755174     1.02300
Cr635      Cr  0.98962775  0.11569968  0.79861475     1.93700
Cr636      Cr  0.95474869  0.12280499  0.81267445     1.93200
Cr637      Cr  0.97524117  0.14636202  0.76899397     1.39100
O638        O  0.97320762  0.12824063  0.79333942    -1.23400
O639        O  0.99899241  0.90403814  0.69635909    -0.85700
O640        O  0.98333753  0.92983842  0.66978496    -0.82700
C641        C  0.97361050  0.92443711  0.64554811     0.97800
O642        O  0.96146028  0.91739614  0.65683872    -0.82700
O643        O  0.94360803  0.89752091  0.70064426    -0.85400
C644        C  0.94993302  0.88419900  0.69600609     1.02300
O645        O  0.96334663  0.88148616  0.70988452    -0.78100
O646        O  0.99300991  0.88689440  0.74089071    -0.78300
C647        C  0.00158229  0.89114942  0.71292351     1.02300
O648        O  0.99785409  0.91614413  0.77446033    -0.85700
O649        O  0.98029411  0.94065692  0.74843586    -0.82700
C650        C  0.96886324  0.94832780  0.73543610     0.97800
O651        O  0.95877562  0.94163054  0.71428733    -0.82800
O652        O  0.94323230  0.92025566  0.76144374    -0.85400
C653        C  0.94109571  0.90811622  0.78161730     1.02300
O654        O  0.94931293  0.89593663  0.77639690    -0.78200
O655        O  0.97821209  0.90404806  0.80236550    -0.78300
C656        C  0.99082777  0.91164071  0.80474654     1.02300
Cr657      Cr  0.98871221  0.92184170  0.72274972     1.93700
Cr658      Cr  0.95319043  0.91869640  0.70985610     1.93200
Cr659      Cr  0.97102065  0.89344599  0.75521903     1.39100
O660        O  0.97098789  0.91135181  0.72927707    -1.23400
O661        O  0.01144572  0.12393504  0.23966163    -0.85700
O662        O  0.02858992  0.09979045  0.26958285    -0.82700
C663        C  0.03970456  0.09239383  0.28499549     0.97800
O664        O  0.04893761  0.09943143  0.30787711    -0.82700
O665        O  0.06472944  0.12252464  0.26573749    -0.85400
C666        C  0.06746358  0.13539185  0.24908714     1.02300
O667        O  0.05858348  0.14706331  0.25450076    -0.78100
O668        O  0.03162571  0.13742390  0.21836929    -0.78300
C669        C  0.01955459  0.12931659  0.21186917     1.02300
O670        O  0.00591900  0.13497165  0.31790753    -0.85700
O671        O  0.02168391  0.10991886  0.34759181    -0.82700
C672        C  0.03035176  0.11541636  0.37412025     0.97800
O673        O  0.04274903  0.12271160  0.36599325    -0.82800
O674        O  0.06069553  0.14452088  0.32938538    -0.85400
C675        C  0.05293708  0.15714984  0.33378114     1.02300
O676        O  0.04004368  0.15892527  0.31661135    -0.78200
O677        O  0.01300242  0.15277806  0.27610293    -0.78300
C678        C  0.00373583  0.14808144  0.30214018     1.02300
Cr679      Cr  0.01826417  0.11801362  0.29357756     1.93700
Cr680      Cr  0.05298256  0.12271330  0.31530745     1.93200
Cr681      Cr  0.03576322  0.14763389  0.26822320     1.39100
O682        O  0.03562082  0.12937133  0.29243199    -1.23400
O683        O  0.01005631  0.91834174  0.28040260    -0.85700
O684        O  0.02870185  0.94165238  0.25056418    -0.82700
C685        C  0.04044724  0.94815706  0.23534718     0.97800
O686        O  0.04877842  0.94069701  0.21113352    -0.82700
O687        O  0.06410448  0.91693997  0.25080626    -0.85400
C688        C  0.06567787  0.90437897  0.26960871     1.02300
O689        O  0.05589428  0.89333102  0.26627478    -0.78100
O690        O  0.02965178  0.90411158  0.30153480    -0.78300
C691        C  0.01787487  0.91256856  0.30816681     1.02300
O692        O  0.00439218  0.90758909  0.20173996    -0.85700
O693        O  0.02091929  0.93220554  0.17282360    -0.82700
C694        C  0.02872452  0.92598903  0.14571163     0.97800
O695        O  0.04060002  0.91776088  0.15300095    -0.82800
O696        O  0.05803315  0.89521872  0.18896576    -0.85400
C697        C  0.04994383  0.88275011  0.18633844     1.02300
O698        O  0.03712715  0.88161635  0.20419180    -0.78200
O699        O  0.01036682  0.88951474  0.24383145    -0.78300
C700        C  0.00176192  0.89439295  0.21669970     1.02300
Cr701      Cr  0.01730629  0.92400460  0.22654766     1.93700
Cr702      Cr  0.05150411  0.91732235  0.20288332     1.93200
Cr703      Cr  0.03328676  0.89357634  0.25200430     1.39100
O704        O  0.03407373  0.91173214  0.22731406    -1.23400
C705        C  0.04394932  0.96486614  0.24481078    -0.03500
C706        C  0.05777239  0.97222519  0.23196248    -0.06100
C707        C  0.06048081  0.98820392  0.23956282    -0.21200
C708        C  0.04930855  0.99723668  0.25944930     0.24500
C709        C  0.03573257  0.98974651  0.27329716    -0.18800
C710        C  0.03310838  0.97380440  0.26611375    -0.08700
C711        C  0.05185235  0.01444280  0.26507544    -0.19000
C712        C  0.03981640  0.02470097  0.26437173    -0.23800
C713        C  0.04128398  0.04208362  0.26780860     0.26600
C714        C  0.02948940  0.05132736  0.25123070    -0.20600
C715        C  0.02944246  0.06759997  0.25572540    -0.10200
C716        C  0.04107737  0.07519355  0.27759837    -0.10800
C717        C  0.05309506  0.06599618  0.29392940    -0.03700
C718        C  0.05324974  0.04957873  0.28893024    -0.18800
H719        H  0.06642720  0.96567554  0.21574636     0.10300
H720        H  0.07111912  0.99362778  0.22893228     0.10400
H721        H  0.02709085  0.99619195  0.28978438     0.10000
H722        H  0.02239586  0.96854239  0.27676911     0.11100
H723        H  0.06378862  0.01878340  0.26696782     0.11200
H724        H  0.02813775  0.02021183  0.25856354     0.13100
H725        H  0.02010082  0.04589546  0.23496486     0.09600
H726        H  0.01995361  0.07419550  0.24279691     0.11700
H727        H  0.06216767  0.07143677  0.31118967     0.08300
H728        H  0.06237403  0.04276830  0.30269751     0.11100
C729        C  0.99737855  0.91512320  0.84334719    -0.03500
C730        C  0.01116138  0.92399150  0.84755760    -0.06100
C731        C  0.01698339  0.92747212  0.88434908    -0.21200
C732        C  0.00904672  0.92233289  0.91752759     0.24500
C733        C  0.99538767  0.91328034  0.91325063    -0.18800
C734        C  0.98960319  0.90977945  0.87662281    -0.08700
C735        C  0.01570342  0.92575879  0.95616223    -0.19000
C736        C  0.00681091  0.92662465  0.98824071    -0.23800
C737        C  0.01332252  0.92812288  0.02778542     0.26600
C738        C  0.00347049  0.93325633  0.05771340    -0.20600
C739        C  0.00868157  0.93328940  0.09598963    -0.10200
C740        C  0.02381035  0.92797805  0.10509059    -0.10800
C741        C  0.03378852  0.92317834  0.07504285    -0.03700
C742        C  0.02862067  0.92322683  0.03683726    -0.18800
H743        H  0.01742082  0.92826912  0.82247281     0.10300
H744        H  0.02765035  0.93428089  0.88692952     0.10400
H745        H  0.98928254  0.90858836  0.93808067     0.10000
H746        H  0.97901986  0.90282259  0.87443033     0.11100
H747        H  0.02822950  0.92780428  0.95791490     0.11200
H748        H  0.99414273  0.92615800  0.98562063     0.13100
H749        H  0.99157939  0.93692408  0.05154936     0.09600
H750        H  0.00066766  0.93689010  0.11856123     0.11700
H751        H  0.04548246  0.91891785  0.08115900     0.08300
H752        H  0.03643768  0.91874473  0.01488437     0.11100
C753        C  0.01320062  0.91537076  0.34879882    -0.03500
C754        C  0.02265264  0.90970641  0.37899007    -0.06100
C755        C  0.01855740  0.91235147  0.41742079    -0.21200
C756        C  0.00485510  0.92058268  0.42677377     0.24500
C757        C  0.99537321  0.92634456  0.39665761    -0.18800
C758        C  0.99951932  0.92374490  0.35802976    -0.08700
C759        C  0.00117978  0.92311242  0.46823667    -0.19000
C760        C  0.98667056  0.92591327  0.48183216    -0.23800
C761        C  0.98321606  0.92683009  0.52378368     0.26600
C762        C  0.96853805  0.92179645  0.53710046    -0.20600
C763        C  0.96527070  0.92137623  0.57661678    -0.10200
C764        C  0.97656310  0.92622226  0.60365406    -0.10800
C765        C  0.99099707  0.93199248  0.59021338    -0.03700
C766        C  0.99429990  0.93230346  0.55067802    -0.18800
H767        H  0.03332007  0.90326731  0.37298089     0.10300
H768        H  0.02610970  0.90785403  0.43998860     0.10400
H769        H  0.98492632  0.93309425  0.40267701     0.10000
H770        H  0.99205613  0.92833924  0.33542936     0.11100
H771        H  0.01069712  0.92143909  0.48862165     0.11200
H772        H  0.97680113  0.92608303  0.46211011     0.13100
H773        H  0.95975045  0.91768861  0.51693162     0.09600
H774        H  0.95399329  0.91696762  0.58600357     0.11700
H775        H  0.99989376  0.93593160  0.61027879     0.08300
H776        H  0.00554777  0.93676636  0.54131298     0.11100
C777        C  0.97771421  0.11231296  0.91778734    -0.03500
C778        C  0.96669683  0.11780890  0.94477617    -0.06100
C779        C  0.97016795  0.11792993  0.98412918    -0.21200
C780        C  0.98479065  0.11278530  0.99743047     0.24500
C781        C  0.99558861  0.10658663  0.97070964    -0.18800
C782        C  0.99206206  0.10634796  0.93122415    -0.08700
C783        C  0.98838095  0.11436473  0.03918886    -0.19000
C784        C  0.00299200  0.11669933  0.05262221    -0.23800
C785        C  0.00663676  0.11992795  0.09383508     0.26600
C786        C  0.02073621  0.12757766  0.10265542    -0.20600
C787        C  0.02478281  0.13079110  0.14088557    -0.10200
C788        C  0.01487313  0.12627690  0.17136760    -0.10800
C789        C  0.00076382  0.11855098  0.16266255    -0.03700
C790        C  0.99667671  0.11538357  0.12430217    -0.18800
H791        H  0.95549230  0.12239521  0.93541719     0.10300
H792        H  0.96158597  0.12258547  0.00414280     0.10400
H793        H  0.00678409  0.10203396  0.98013009     0.10000
H794        H  0.00075900  0.10197352  0.91115117     0.11100
H795        H  0.97850504  0.11512409  0.05883573     0.11200
H796        H  0.01263834  0.11742215  0.03224176     0.13100
H797        H  0.02865503  0.13114405  0.07982159     0.09600
H798        H  0.03578955  0.13668304  0.14654653     0.11700
H799        H  0.99292978  0.11483921  0.18550753     0.08300
H800        H  0.98589746  0.10909996  0.11884700     0.11100
C801        C  0.99963829  0.12453894  0.67862327    -0.03500
C802        C  0.01485451  0.11859637  0.67361657    -0.06100
C803        C  0.02098972  0.11648793  0.63646778    -0.21200
C804        C  0.01193681  0.11999005  0.60372874     0.24500
C805        C  0.99677883  0.12610639  0.60884793    -0.18800
C806        C  0.99071131  0.12831541  0.64582651    -0.08700
C807        C  0.01877830  0.11776299  0.56468480    -0.19000
C808        C  0.00991129  0.11504447  0.53317292    -0.23800
C809        C  0.01615154  0.11382124  0.49320850     0.26600
C810        C  0.00632603  0.10784471  0.46417278    -0.20600
C811        C  0.01113187  0.10773027  0.42557536    -0.10200
C812        C  0.02587035  0.11369754  0.41517630    -0.10800
C813        C  0.03587954  0.11929754  0.44433638    -0.03700
C814        C  0.03108072  0.11942272  0.48286381    -0.18800
H815        H  0.02206535  0.11575499  0.69836268     0.10300
H816        H  0.03279056  0.11199608  0.63326925     0.10400
H817        H  0.98965170  0.12952109  0.58443740     0.10000
H818        H  0.97898127  0.13302754  0.64870260     0.11100
H819        H  0.03144356  0.11790669  0.56240774     0.11200
H820        H  0.99737056  0.11347096  0.53666331     0.13100
H821        H  0.99473208  0.10354628  0.47127117     0.09600
H822        H  0.00311045  0.10343426  0.40378678     0.11700
H823        H  0.04729066  0.12406782  0.43728135     0.08300
H824        H  0.03891775  0.12448491  0.50394827     0.11100
C825        C  0.96787379  0.96541039  0.74344666    -0.03500
C826        C  0.98015519  0.97294882  0.76310271    -0.06100
C827        C  0.98006225  0.98918400  0.76822023    -0.21200
C828        C  0.96763708  0.99833586  0.75429470     0.24500
C829        C  0.95511026  0.99082668  0.73534851    -0.18800
C830        C  0.95525141  0.97450495  0.72995926    -0.08700
C831        C  0.96886303  0.01566643  0.75812584    -0.19000
C832        C  0.95668194  0.02569437  0.75637475    -0.23800
C833        C  0.95889965  0.04290220  0.76100098     0.26600
C834        C  0.94729489  0.05189386  0.77931243    -0.20600
C835        C  0.94966028  0.06792966  0.78621706    -0.10200
C836        C  0.96359039  0.07531500  0.77430498    -0.10800
C837        C  0.97484806  0.06642862  0.75429670    -0.03700
C838        C  0.97253594  0.05043219  0.74770243    -0.18800
H839        H  0.99008768  0.96634894  0.77380947     0.10300
H840        H  0.98988290  0.99465254  0.78277447     0.10400
H841        H  0.94547240  0.99751372  0.72352317     0.10000
H842        H  0.94564776  0.96905625  0.71454955     0.11100
H843        H  0.98044093  0.02033965  0.76427206     0.11200
H844        H  0.94481108  0.02123128  0.75407487     0.13100
H845        H  0.93659778  0.04639827  0.78935067     0.09600
H846        H  0.94070195  0.07447799  0.80140545     0.11700
H847        H  0.98563661  0.07176118  0.74433703     0.08300
H848        H  0.98147492  0.04397723  0.73223129     0.11100
C849        C  0.08133567  0.13750840  0.22451462    -0.03500
C850        C  0.08380189  0.12801542  0.19205290    -0.06100
C851        C  0.09498393  0.13233892  0.16437527    -0.21200
C852        C  0.10406976  0.14596771  0.16929362     0.24500
C853        C  0.10231859  0.15475204  0.20341508    -0.18800
C854        C  0.09095272  0.15062189  0.23052753    -0.08700
C855        C  0.11280395  0.15242279  0.13578899    -0.19000
C856        C  0.12419853  0.16329075  0.13902995    -0.23800
C857        C  0.12810284  0.17413034  0.10691859     0.26600
C858        C  0.14314057  0.18076493  0.10409350    -0.20600
C859        C  0.14619644  0.19270723  0.07718612    -0.10200
C860        C  0.13407739  0.19851614  0.05377463    -0.10800
C861        C  0.11916108  0.19165740  0.05620140    -0.03700
C862        C  0.11622236  0.17956471  0.08224162    -0.18800
H863        H  0.07633993  0.11796092  0.18674426     0.10300
H864        H  0.09595855  0.12550738  0.13811195     0.10400
H865        H  0.10877026  0.16552596  0.20791058     0.10000
H866        H  0.08912764  0.15812757  0.25538501     0.11100
H867        H  0.10843249  0.14943600  0.10725520     0.11200
H868        H  0.12973169  0.16539787  0.16676594     0.13100
H869        H  0.15240919  0.17692249  0.12322884     0.09600
H870        H  0.15779651  0.19783250  0.07580470     0.11700
H871        H  0.10963505  0.19583757  0.03828028     0.08300
H872        H  0.10438810  0.17507168  0.08438091     0.11100
C873        C  0.01950682  0.15306483  0.82587835    -0.03500
C874        C  0.02755475  0.14757065  0.85858959    -0.06100
C875        C  0.04091374  0.15532396  0.87187621    -0.21200
C876        C  0.04645703  0.16878630  0.85301126     0.24500
C877        C  0.03852051  0.17421794  0.82001380    -0.18800
C878        C  0.02514513  0.16645419  0.80668897    -0.08700
C879        C  0.06071736  0.17659292  0.86813588    -0.19000
C880        C  0.06381815  0.19192600  0.86280947    -0.23800
C881        C  0.07757670  0.19977786  0.88036038     0.26600
C882        C  0.07648657  0.21571194  0.89006593    -0.20600
C883        C  0.08892638  0.22330774  0.90841287    -0.10200
C884        C  0.10281012  0.21514197  0.91696793    -0.10800
C885        C  0.10414242  0.19934387  0.90580158    -0.03700
C886        C  0.09165762  0.19172781  0.88764755    -0.18800
H887        H  0.02354167  0.13725599  0.87396537     0.10300
H888        H  0.04687885  0.15085106  0.89719220     0.10400
H889        H  0.04273414  0.18426484  0.80399164     0.10000
H890        H  0.01931874  0.17084675  0.78111154     0.11100
H891        H  0.06835300  0.16967005  0.88653507     0.11200
H892        H  0.05540825  0.19927483  0.84779908     0.13100
H893        H  0.06581874  0.22219674  0.88435349     0.09600
H894        H  0.08756496  0.23551664  0.91643662     0.11700
H895        H  0.11473151  0.19276949  0.91170517     0.08300
H896        H  0.09308229  0.17956925  0.87934110     0.11100
C897        C  0.19566607  0.23619084  0.00117136    -0.03500
C898        C  0.20188445  0.24465821  0.03247579    -0.06100
C899        C  0.21763028  0.24294245  0.04306551    -0.21200
C900        C  0.22764222  0.23304206  0.02207150     0.24500
C901        C  0.22139714  0.22434200  0.99115558    -0.18800
C902        C  0.20555455  0.22582423  0.98100376    -0.08700
C903        C  0.24446265  0.23195197  0.03333753    -0.19000
C904        C  0.25609977  0.23013609  0.00736286    -0.23800
C905        C  0.27303854  0.23036164  0.01784488     0.26600
C906        C  0.28388341  0.23645105  0.99128882    -0.20600
C907        C  0.29987008  0.23709428  0.00023041    -0.10200
C908        C  0.30546468  0.23123405  0.03556264    -0.10800
C909        C  0.29468494  0.22469212  0.06174437    -0.03700
C910        C  0.27861425  0.22437781  0.05314551    -0.18800
H911        H  0.19456527  0.25263799  0.04882224     0.10300
H912        H  0.22210167  0.24965575  0.06722653     0.10400
H913        H  0.22870970  0.21630801  0.97498696     0.10000
H914        H  0.20111924  0.21907568  0.95687519     0.11100
H915        H  0.24740838  0.23403147  0.06340828     0.11200
H916        H  0.25318555  0.22971465  0.97685436     0.13100
H917        H  0.27992582  0.24101990  0.96378499     0.09600
H918        H  0.30788406  0.24216630  0.97942874     0.11700
H919        H  0.29864214  0.22014317  0.08925728     0.08300
H920        H  0.27061120  0.21929691  0.07392207     0.11100
C921        C  0.11707173  0.25470502  0.46419732    -0.03500
C922        C  0.12476896  0.24012957  0.46343136    -0.06100
C923        C  0.11709586  0.22670173  0.45021007    -0.21200
C924        C  0.10150502  0.22739877  0.43753299     0.24500
C925        C  0.09363851  0.24194804  0.43888549    -0.18800
C926        C  0.10135541  0.25544428  0.45218534    -0.08700
C927        C  0.09444985  0.21286236  0.42105893    -0.19000
C928        C  0.07899264  0.21064365  0.41523378    -0.23800
C929        C  0.07239330  0.19637621  0.39632487     0.26600
C930        C  0.05756540  0.19741386  0.37906035    -0.20600
C931        C  0.05114171  0.18458871  0.35951334    -0.10200
C932        C  0.05936469  0.17031829  0.35692600    -0.10800
C933        C  0.07398614  0.16906909  0.37527613    -0.03700
C934        C  0.08041499  0.18191735  0.39491435    -0.18800
H935        H  0.13686205  0.23910321  0.47253107     0.10300
H936        H  0.12347396  0.21571189  0.44944516     0.10400
H937        H  0.08174426  0.24315847  0.42864843     0.10000
H938        H  0.09512683  0.26651706  0.45224267     0.11100
H939        H  0.10259273  0.20369426  0.41277952     0.11200
H940        H  0.07078262  0.21981383  0.42306935     0.13100
H941        H  0.05104657  0.20831806  0.37997087     0.09600
H942        H  0.03981462  0.18596346  0.34585158     0.11700
H943        H  0.08054798  0.15820139  0.37414936     0.08300
H944        H  0.09160084  0.18037140  0.40901330     0.11100
C945        C  0.15676652  0.27719334  0.59532251    -0.03500
C946        C  0.17175675  0.28051698  0.60993415    -0.06100
C947        C  0.17557023  0.27658599  0.64798979    -0.21200
C948        C  0.16460090  0.26895784  0.67159613     0.24500
C949        C  0.14966351  0.26550193  0.65669332    -0.18800
C950        C  0.14580180  0.26959333  0.61897867    -0.08700
C951        C  0.16847543  0.26564356  0.71242922    -0.19000
C952        C  0.16209031  0.25344096  0.73133267    -0.23800
C953        C  0.16324509  0.25088970  0.77353431     0.26600
C954        C  0.15824001  0.23640321  0.78818747    -0.20600
C955        C  0.15700794  0.23401212  0.82783597    -0.10200
C956        C  0.16075280  0.24609433  0.85385351    -0.10800
C957        C  0.16635466  0.26042981  0.83937799    -0.03700
C958        C  0.16753287  0.26285608  0.79954150    -0.18800
H959        H  0.18035624  0.28652702  0.59231149     0.10300
H960        H  0.18706374  0.27954689  0.65907216     0.10400
H961        H  0.14072966  0.26011491  0.67447331     0.10000
H962        H  0.13414506  0.26695182  0.60845041     0.11100
H963        H  0.17661767  0.27345302  0.72687250     0.11200
H964        H  0.15520896  0.24497411  0.71512276     0.13100
H965        H  0.15479745  0.22702554  0.76883791     0.09600
H966        H  0.15270480  0.22279499  0.83805140     0.11700
H967        H  0.16922371  0.26997933  0.85875460     0.08300
H968        H  0.17111040  0.27431980  0.78950303     0.11100
C969        C  0.15605137  0.29018200  0.35585985    -0.03500
C970        C  0.15474119  0.27445650  0.34407809    -0.06100
C971        C  0.15498276  0.27052125  0.30512012    -0.21200
C972        C  0.15639293  0.28215693  0.27675581     0.24500
C973        C  0.15806323  0.29792858  0.28834734    -0.18800
C974        C  0.15790201  0.30188817  0.32764297    -0.08700
C975        C  0.15562075  0.27704415  0.23585449    -0.19000
C976        C  0.15288111  0.28656065  0.20560911    -0.23800
C977        C  0.15005742  0.28015468  0.16642941     0.26600
C978        C  0.15471863  0.28874663  0.13385750    -0.20600
C979        C  0.15207685  0.28283758  0.09671167    -0.10200
C980        C  0.14447357  0.26834072  0.09159437    -0.10800
C981        C  0.13951854  0.25993899  0.12427688    -0.03700
C982        C  0.14222893  0.26578490  0.16122652    -0.18800
H983        H  0.15337619  0.26510522  0.36499302     0.10300
H984        H  0.15372956  0.25829145  0.29710605     0.10400
H985        H  0.15949605  0.30723821  0.26746327     0.10000
H986        H  0.15901531  0.31409544  0.33589266     0.11100
H987        H  0.15656399  0.26450549  0.23063814     0.11200
H988        H  0.15244026  0.29918511  0.20923289     0.13100
H989        H  0.16058258  0.29993973  0.13719923     0.09600
H990        H  0.15597070  0.28961056  0.07205864     0.11700
H991        H  0.13353022  0.24879235  0.12137279     0.08300
H992        H  0.13792788  0.25913107  0.18564604     0.11100
C993        C  0.36086271  0.25854688  0.93783222    -0.03500
C994        C  0.36991911  0.25116090  0.90923731    -0.06100
C995        C  0.36917909  0.25608787  0.87094475    -0.21200
C996        C  0.35928807  0.26843970  0.85991781     0.24500
C997        C  0.35021833  0.27595695  0.88849355    -0.18800
C998        C  0.35103766  0.27105104  0.92712015    -0.08700
C999        C  0.35906308  0.27283917  0.81833946    -0.19000
C1000       C  0.34836518  0.28221954  0.80139782    -0.23800
C1001       C  0.34824067  0.28510434  0.75900313     0.26600
C1002       C  0.34167044  0.29902403  0.74452982    -0.20600
C1003       C  0.34144287  0.30199789  0.70472864    -0.10200
C1004       C  0.34760702  0.29097400  0.67860863    -0.10800
C1005       C  0.35385614  0.27690728  0.69311722    -0.03700
C1006       C  0.35410904  0.27396636  0.73271093    -0.18800
H1007       H  0.37766513  0.24152393  0.91639868     0.10300
H1008       H  0.37632366  0.25008503  0.84971055     0.10400
H1009       H  0.34260283  0.28567276  0.88149485     0.10000
H1010       H  0.34393319  0.27698131  0.94852543     0.11100
H1011       H  0.36819665  0.26770566  0.80056828     0.11200
H1012       H  0.33946831  0.28801975  0.81855910     0.13100
H1013       H  0.33688421  0.30770159  0.76410757     0.09600
H1014       H  0.33650707  0.31293210  0.69444910     0.11700
H1015       H  0.35863767  0.26811787  0.67384032     0.08300
H1016       H  0.35867979  0.26280618  0.74240158     0.11100
C1017       C  0.34171388  0.24447496  0.17919482    -0.03500
C1018       C  0.33370755  0.25820762  0.19002559    -0.06100
C1019       C  0.33246841  0.26243936  0.22902065    -0.21200
C1020       C  0.33935721  0.25316583  0.25792685     0.24500
C1021       C  0.34689492  0.23915059  0.24715599    -0.18800
C1022       C  0.34809362  0.23490398  0.20831474    -0.08700
C1023       C  0.33875206  0.25852919  0.29884199    -0.19000
C1024       C  0.35003668  0.25491425  0.32453530    -0.23800
C1025       C  0.35090409  0.26152989  0.36415336     0.26600
C1026       C  0.36573306  0.26323387  0.38095703    -0.20600
C1027       C  0.36735565  0.26959528  0.41780356    -0.10200
C1028       C  0.35413636  0.27416438  0.43925058    -0.10800
C1029       C  0.33918372  0.27211085  0.42294667    -0.03700
C1030       C  0.33756922  0.26590993  0.38557937    -0.18800
H1031       H  0.32862416  0.26581708  0.16836020     0.10300
H1032       H  0.32647776  0.27322136  0.23655164     0.10400
H1033       H  0.35188441  0.23139745  0.26860524     0.10000
H1034       H  0.35425024  0.22418269  0.20110075     0.11100
H1035       H  0.32961054  0.26675976  0.30693919     0.11200
H1036       H  0.35998306  0.24795345  0.31512098     0.13100
H1037       H  0.37617591  0.25984690  0.36522433     0.09600
H1038       H  0.37904194  0.27088533  0.42955031     0.11700
H1039       H  0.32878250  0.27545265  0.43886585     0.08300
H1040       H  0.32593284  0.26439571  0.37376845     0.11100
C1041       C  0.30544362  0.30755183  0.54528677    -0.03500
C1042       C  0.29542173  0.29532595  0.55671915    -0.06100
C1043       C  0.27945987  0.29585850  0.54847876    -0.21200
C1044       C  0.27292656  0.30862854  0.52869322     0.24500
C1045       C  0.28281565  0.32111009  0.51767243    -0.18800
C1046       C  0.29895395  0.32057977  0.52602644    -0.08700
C1047       C  0.25600232  0.30765122  0.51846975    -0.19000
C1048       C  0.24676069  0.31980225  0.50824528    -0.23800
C1049       C  0.22985682  0.31745931  0.49870295     0.26600
C1050       C  0.21887658  0.32935042  0.50649560    -0.20600
C1051       C  0.20284430  0.32697123  0.49921615    -0.10200
C1052       C  0.19753445  0.31268431  0.48360962    -0.10800
C1053       C  0.20863648  0.30103547  0.47470476    -0.03700
C1054       C  0.22454075  0.30340885  0.48189513    -0.18800
H1055       H  0.29993527  0.28516096  0.57183157     0.10300
H1056       H  0.27217754  0.28607873  0.55732231     0.10400
H1057       H  0.27826068  0.33103218  0.50176306     0.10000
H1058       H  0.30638526  0.33015714  0.51668066     0.11100
H1059       H  0.25069406  0.29611709  0.52112431     0.11200
H1060       H  0.25133799  0.33168154  0.50884178     0.13100
H1061       H  0.22266908  0.34035876  0.51902590     0.09600
H1062       H  0.19461147  0.33620856  0.50623092     0.11700
H1063       H  0.20504642  0.28995801  0.46218197     0.08300
H1064       H  0.23265315  0.29419726  0.47397344     0.11100
C1065       C  0.80780540  0.72983808  0.52903549    -0.03500
C1066       C  0.79960381  0.71966354  0.55383637    -0.06100
C1067       C  0.78333035  0.71795430  0.55067773    -0.21200
C1068       C  0.77492664  0.72609383  0.52218694     0.24500
C1069       C  0.78317191  0.73593631  0.49664815    -0.18800
C1070       C  0.79941124  0.73782069  0.50013825    -0.08700
C1071       C  0.75751366  0.72503652  0.52160177    -0.19000
C1072       C  0.74898928  0.72652799  0.48908761    -0.23800
C1073       C  0.73155664  0.72643621  0.48859711     0.26600
C1074       C  0.72375461  0.72084759  0.45569756    -0.20600
C1075       C  0.70741043  0.72163887  0.45302405    -0.10200
C1076       C  0.69853837  0.72848550  0.48275056    -0.10800
C1077       C  0.70630906  0.73403731  0.51581499    -0.03700
C1078       C  0.72264851  0.73288564  0.51891075    -0.18800
H1079       H  0.80568489  0.71340205  0.57653425     0.10300
H1080       H  0.77725096  0.71037783  0.57084527     0.10400
H1081       H  0.77703654  0.74267588  0.47491605     0.10000
H1082       H  0.80535227  0.74579331  0.48066907     0.11100
H1083       H  0.75158264  0.72257740  0.54868840     0.11200
H1084       H  0.75497481  0.72741461  0.46149493     0.13100
H1085       H  0.73035331  0.71598464  0.43180474     0.09600
H1086       H  0.70175662  0.71746323  0.42698833     0.11700
H1087       H  0.69975495  0.73945557  0.53904464     0.08300
H1088       H  0.72831950  0.73762560  0.54430399     0.11100
C1089       C  0.88840014  0.78451411  0.56576188    -0.03500
C1090       C  0.90368812  0.78678535  0.55168510    -0.06100
C1091       C  0.91302221  0.79900033  0.56579936    -0.21200
C1092       C  0.90727345  0.80934105  0.59397504     0.24500
C1093       C  0.89196218  0.80707648  0.60812471    -0.18800
C1094       C  0.88264550  0.79481842  0.59412147    -0.08700
C1095       C  0.91781398  0.82183648  0.60912022    -0.19000
C1096       C  0.91252993  0.83509438  0.62583514    -0.23800
C1097       C  0.92289300  0.84754537  0.64182753     0.26600
C1098       C  0.91666601  0.86263518  0.64682615    -0.20600
C1099       C  0.92560145  0.87455591  0.66352768    -0.10200
C1100       C  0.94099873  0.87165520  0.67608078    -0.10800
C1101       C  0.94732846  0.85656985  0.67093174    -0.03700
C1102       C  0.93837276  0.84461510  0.65401438    -0.18800
H1103       H  0.90853346  0.77900145  0.53004691     0.10300
H1104       H  0.92480575  0.80037184  0.55465486     0.10400
H1105       H  0.88723709  0.81444917  0.63071034     0.10000
H1106       H  0.87097515  0.79331734  0.60584429     0.11100
H1107       H  0.93031544  0.82025063  0.60492879     0.11200
H1108       H  0.90001295  0.83731116  0.62670656     0.13100
H1109       H  0.90476315  0.86520308  0.63798400     0.09600
H1110       H  0.92030540  0.88600830  0.66718995     0.11700
H1111       H  0.95910082  0.85392286  0.68059310     0.08300
H1112       H  0.94347238  0.83303964  0.65165765     0.11100
C1113       C  0.64933888  0.77825757  0.09203401    -0.03500
C1114       C  0.66343410  0.77020585  0.09905050    -0.06100
C1115       C  0.66747565  0.76562004  0.13655473    -0.21200
C1116       C  0.65729863  0.76859939  0.16748613     0.24500
C1117       C  0.64330832  0.77685868  0.16055514    -0.18800
C1118       C  0.63944165  0.78176546  0.12323458    -0.08700
C1119       C  0.66141738  0.76307035  0.20681976    -0.19000
C1120       C  0.65051283  0.75697644  0.23050229    -0.23800
C1121       C  0.65381128  0.75122095  0.27007905     0.26600
C1122       C  0.64443353  0.73916258  0.28499073    -0.20600
C1123       C  0.64595357  0.73441779  0.32335706    -0.10200
C1124       C  0.65669761  0.74186261  0.34807369    -0.10800
C1125       C  0.66639172  0.75373031  0.33294918    -0.03700
C1126       C  0.66503562  0.75831254  0.29418039    -0.18800
H1127       H  0.67140372  0.76760212  0.07556523     0.10300
H1128       H  0.67839237  0.75943176  0.14130648     0.10400
H1129       H  0.63542206  0.77964597  0.18406547     0.10000
H1130       H  0.62859097  0.78808906  0.11867821     0.11100
H1131       H  0.67365439  0.76311417  0.21542437     0.11200
H1132       H  0.63862606  0.75552281  0.21981063     0.13100
H1133       H  0.63566447  0.73357625  0.26702845     0.09600
H1134       H  0.63823264  0.72531116  0.33403974     0.11700
H1135       H  0.67471448  0.75975344  0.35130954     0.08300
H1136       H  0.67224305  0.76785166  0.28365841     0.11100
C1137       C  0.66107055  0.79151234  0.84985361    -0.03500
C1138       C  0.66911298  0.77772213  0.83976091    -0.06100
C1139       C  0.66990820  0.77287586  0.80123807    -0.21200
C1140       C  0.66278735  0.78171727  0.77186999     0.24500
C1141       C  0.65514130  0.79578597  0.78182248    -0.18800
C1142       C  0.65434306  0.80063084  0.82035151    -0.08700
C1143       C  0.66231693  0.77510251  0.73212231    -0.19000
C1144       C  0.65886369  0.78348973  0.70022463    -0.23800
C1145       C  0.65656225  0.77614689  0.66168399     0.26600
C1146       C  0.65886668  0.78515759  0.62819000    -0.20600
C1147       C  0.65608076  0.77873123  0.59158622    -0.10200
C1148       C  0.65063021  0.76324290  0.58787440    -0.10800
C1149       C  0.64821751  0.75428312  0.62142881    -0.03700
C1150       C  0.65114038  0.76063388  0.65786150    -0.18800
H1151       H  0.67439883  0.77040428  0.86174731     0.10300
H1152       H  0.67579186  0.76195186  0.79446632     0.10400
H1153       H  0.64915312  0.80277370  0.76037111     0.10000
H1154       H  0.64797545  0.81127219  0.82714107     0.11100
H1155       H  0.66484747  0.76267150  0.72921866     0.11200
H1156       H  0.65779352  0.79615230  0.70201263     0.13100
H1157       H  0.66281997  0.79720543  0.63037410     0.09600
H1158       H  0.65792496  0.78595905  0.56627202     0.11700
H1159       H  0.64396749  0.74232802  0.61957460     0.08300
H1160       H  0.64868744  0.75347393  0.68293634     0.11100
C1161       C  0.85567863  0.76237087  0.42014096    -0.03500
C1162       C  0.86017280  0.75282439  0.38895389    -0.06100
C1163       C  0.85699380  0.75727839  0.35109515    -0.21200
C1164       C  0.84941768  0.77148958  0.34310057     0.24500
C1165       C  0.84480608  0.78114218  0.37414598    -0.18800
C1166       C  0.84787626  0.77657473  0.41240123    -0.08700
C1167       C  0.84643626  0.77538911  0.30192694    -0.19000
C1168       C  0.84465587  0.79005296  0.28814051    -0.23800
C1169       C  0.84386630  0.79337447  0.24596304     0.26600
C1170       C  0.84966273  0.80770930  0.23210659    -0.20600
C1171       C  0.85041086  0.81066044  0.19242246    -0.10200
C1172       C  0.84518355  0.79939173  0.16564637    -0.10800
C1173       C  0.83866542  0.78534885  0.17956977    -0.03700
C1174       C  0.83796585  0.78238082  0.21927419    -0.18800
H1175       H  0.86610771  0.74176366  0.39372218     0.10300
H1176       H  0.86061271  0.74958792  0.32783173     0.10400
H1177       H  0.83863615  0.79203850  0.36908233     0.10000
H1178       H  0.84418371  0.78413445  0.43582406     0.11100
H1179       H  0.84717003  0.76571967  0.28160540     0.11200
H1180       H  0.84539506  0.79996262  0.30774588     0.13100
H1181       H  0.85412217  0.81644629  0.25199095     0.09600
H1182       H  0.85537691  0.82167171  0.18271171     0.11700
H1183       H  0.83439311  0.77649605  0.15976505     0.08300
H1184       H  0.83287309  0.77142905  0.22888113     0.11100
C1185       C  0.84669418  0.74725404  0.66363621    -0.03500
C1186       C  0.83749924  0.76024471  0.67427810    -0.06100
C1187       C  0.83701406  0.76532942  0.71266723    -0.21200
C1188       C  0.84559279  0.75751632  0.74141823     0.24500
C1189       C  0.85444807  0.74423223  0.73099225    -0.18800
C1190       C  0.85494997  0.73915472  0.69256881    -0.08700
C1191       C  0.84609285  0.76438431  0.78095456    -0.19000
C1192       C  0.85038800  0.75636406  0.81280651    -0.23800
C1193       C  0.85217838  0.76386750  0.85136946     0.26600
C1194       C  0.85039165  0.75472059  0.88482244    -0.20600
C1195       C  0.85260897  0.76130632  0.92148716    -0.10200
C1196       C  0.85700424  0.77712062  0.92539059    -0.10800
C1197       C  0.85893396  0.78623693  0.89187311    -0.03700
C1198       C  0.85652593  0.77971625  0.85531577    -0.18800
H1199       H  0.83099330  0.76676608  0.65276735     0.10300
H1200       H  0.83015412  0.77562730  0.71979743     0.10400
H1201       H  0.86154407  0.73809167  0.75196585     0.10000
H1202       H  0.86222499  0.72916485  0.68534685     0.11100
H1203       H  0.84266982  0.77660366  0.78381722     0.11200
H1204       H  0.85237220  0.74380786  0.81102036     0.13100
H1205       H  0.84724744  0.74243752  0.88256560     0.09600
H1206       H  0.85114695  0.75395491  0.94673549     0.11700
H1207       H  0.86236013  0.79845052  0.89387544     0.08300
H1208       H  0.85850390  0.78702449  0.83023923     0.11100
C1209       C  0.80661031  0.80973647  0.02373532    -0.03500
C1210       C  0.80019870  0.80254017  0.99083153    -0.06100
C1211       C  0.78426080  0.80411529  0.98221821    -0.21200
C1212       C  0.77425610  0.81255825  0.00676514     0.24500
C1213       C  0.78065351  0.81993993  0.03951521    -0.18800
C1214       C  0.79670434  0.81864261  0.04771984    -0.08700
C1215       C  0.75729461  0.81350234  0.99700415    -0.19000
C1216       C  0.74586273  0.81381109  0.02384974    -0.23800
C1217       C  0.72894783  0.81267600  0.01369313     0.26600
C1218       C  0.71885767  0.80426228  0.03808111    -0.20600
C1219       C  0.70310180  0.80210865  0.02822863    -0.10200
C1220       C  0.69696482  0.80868148  0.99419108    -0.10800
C1221       C  0.70688597  0.81773946  0.97064723    -0.03700
C1222       C  0.72275370  0.81962331  0.98013154    -0.18800
H1223       H  0.80753295  0.79570578  0.97163254     0.10300
H1224       H  0.77965414  0.79842654  0.95665815     0.10400
H1225       H  0.77331528  0.82682399  0.05856485     0.10000
H1226       H  0.80130894  0.82435454  0.07323764     0.11100
H1227       H  0.75409069  0.81236891  0.96678157     0.11200
H1228       H  0.74900181  0.81325264  0.05420743     0.13100
H1229       H  0.72329649  0.79892299  0.06426872     0.09600
H1230       H  0.69572569  0.79519162  0.04716693     0.11700
H1231       H  0.70248596  0.82300129  0.94434041     0.08300
H1232       H  0.73015445  0.82650489  0.96121508     0.11100
C1233       C  0.86471069  0.84636633  0.95768335    -0.03500
C1234       C  0.86759798  0.84221425  0.91920473    -0.06100
C1235       C  0.87232929  0.85356767  0.89256327    -0.21200
C1236       C  0.87476678  0.86914398  0.90429857     0.24500
C1237       C  0.87089631  0.87348787  0.94234732    -0.18800
C1238       C  0.86582875  0.86214491  0.96884437    -0.08700
C1239       C  0.88268063  0.88003783  0.87710580    -0.19000
C1240       C  0.89338522  0.89062576  0.88895780    -0.23800
C1241       C  0.90473875  0.89804032  0.86201109     0.26600
C1242       C  0.92007207  0.90081285  0.87503648    -0.20600
C1243       C  0.93183760  0.90517670  0.84908045    -0.10200
C1244       C  0.92833365  0.90734207  0.80994016    -0.10800
C1245       C  0.91280202  0.90582290  0.79731128    -0.03700
C1246       C  0.90106125  0.90115853  0.82313629    -0.18800
H1247       H  0.86696057  0.83004174  0.91028299     0.10300
H1248       H  0.87514632  0.84995186  0.86339059     0.10400
H1249       H  0.87233091  0.88548421  0.95199674     0.10000
H1250       H  0.86384384  0.86548993  0.99861951     0.11100
H1251       H  0.88163394  0.87746091  0.84651601     0.11200
H1252       H  0.89558595  0.89197359  0.91965982     0.13100
H1253       H  0.92318217  0.89859058  0.90485599     0.09600
H1254       H  0.94381397  0.90614836  0.85917457     0.11700
H1255       H  0.90995581  0.90727315  0.76704617     0.08300
H1256       H  0.88927310  0.89950293  0.81238084     0.11100
C1257       C  0.90076056  0.83354853  0.09196334    -0.03500
C1258       C  0.89883532  0.84945976  0.10152660    -0.06100
C1259       C  0.91113541  0.85800904  0.11771651    -0.21200
C1260       C  0.92562991  0.85088345  0.12522561     0.24500
C1261       C  0.92757849  0.83489076  0.11604400    -0.18800
C1262       C  0.91524936  0.82632282  0.09956808    -0.08700
C1263       C  0.93850173  0.86084337  0.14068382    -0.19000
C1264       C  0.95131410  0.85526542  0.15879317    -0.23800
C1265       C  0.96398322  0.86565054  0.17367841     0.26600
C1266       C  0.97348917  0.86033873  0.20404778    -0.20600
C1267       C  0.98560970  0.86973319  0.21845545    -0.10200
C1268       C  0.98857631  0.88462549  0.20252572    -0.10800
C1269       C  0.97917682  0.88986689  0.17182744    -0.03700
C1270       C  0.96707203  0.88048897  0.15746212    -0.18800
H1271       H  0.88788303  0.85543977  0.09582146     0.10300
H1272       H  0.90933142  0.87031786  0.12419700     0.10400
H1273       H  0.93867698  0.82904582  0.12045392     0.10000
H1274       H  0.91713386  0.81410763  0.09228084     0.11100
H1275       H  0.93694578  0.87344764  0.13827236     0.11200
H1276       H  0.95230417  0.84278946  0.16458126     0.13100
H1277       H  0.97148722  0.84889980  0.21678736     0.09600
H1278       H  0.99272741  0.86527495  0.24188606     0.11700
H1279       H  0.98129622  0.90116774  0.15849021     0.08300
H1280       H  0.96042617  0.88479963  0.13310017     0.11100
C1281       C  0.51882220  0.88661433  0.82530153    -0.03500
C1282       C  0.52927259  0.89306140  0.85235178    -0.06100
C1283       C  0.54271530  0.88488470  0.86339194    -0.21200
C1284       C  0.54599633  0.87000892  0.84803603     0.24500
C1285       C  0.53561573  0.86355138  0.82073303    -0.18800
C1286       C  0.52215662  0.87177831  0.80954320    -0.08700
C1287       C  0.56052723  0.86190176  0.86074244    -0.19000
C1288       C  0.56272422  0.84626161  0.85870320    -0.23800
C1289       C  0.57689492  0.83848151  0.87467441     0.26600
C1290       C  0.57566307  0.82314242  0.88912232    -0.20600
C1291       C  0.58847611  0.81592126  0.90699884    -0.10200
C1292       C  0.60285334  0.82385854  0.91037228    -0.10800
C1293       C  0.60429852  0.83890599  0.89406866    -0.03700
C1294       C  0.59148560  0.84612952  0.87634852    -0.18800
H1295       H  0.52712727  0.90450259  0.86490496     0.10300
H1296       H  0.55055420  0.89018671  0.88424519     0.10400
H1297       H  0.53794738  0.85231805  0.80739826     0.10000
H1298       H  0.51442050  0.86656302  0.78835145     0.11100
H1299       H  0.56934219  0.86908372  0.87482833     0.11200
H1300       H  0.55338115  0.83877379  0.84814768     0.13100
H1301       H  0.56460609  0.81692611  0.88772900     0.09600
H1302       H  0.58699936  0.80428161  0.91901839     0.11700
H1303       H  0.61525674  0.84527809  0.89572727     0.08300
H1304       H  0.59304132  0.85772544  0.86419600     0.11100
C1305       C  0.39317994  0.26066993  0.57499793    -0.03500
C1306       C  0.40775974  0.26444647  0.59140987    -0.06100
C1307       C  0.41780343  0.25259623  0.60434146    -0.21200
C1308       C  0.41361152  0.23674578  0.60059757     0.24500
C1309       C  0.39902956  0.23297607  0.58399690    -0.18800
C1310       C  0.38895010  0.24481465  0.57134140    -0.08700
C1311       C  0.42414719  0.22452661  0.61678848    -0.19000
C1312       C  0.42408692  0.20952164  0.60456459    -0.23800
C1313       C  0.43278985  0.19667291  0.62401274     0.26600
C1314       C  0.42711757  0.18131187  0.61999359    -0.20600
C1315       C  0.43411601  0.16890790  0.63982528    -0.10200
C1316       C  0.44713337  0.17154811  0.66374086    -0.10800
C1317       C  0.45328989  0.18681067  0.66649882    -0.03700
C1318       C  0.44617955  0.19928252  0.64687361    -0.18800
H1319       H  0.41130265  0.27657191  0.59484352     0.10300
H1320       H  0.42886548  0.25581918  0.61746385     0.10400
H1321       H  0.39508022  0.22095196  0.58181712     0.10000
H1322       H  0.37776502  0.24153741  0.55897456     0.11100
H1323       H  0.43178371  0.22803290  0.64027455     0.11200
H1324       H  0.41653532  0.20618846  0.58074573     0.13100
H1325       H  0.41691139  0.17895676  0.60232851     0.09600
H1326       H  0.42916098  0.15726648  0.63688426     0.11700
H1327       H  0.46335702  0.18918961  0.68459899     0.08300
H1328       H  0.45120098  0.21087296  0.64978182     0.11100
C1329       C  0.36587542  0.19184111  0.98212383    -0.03500
C1330       C  0.35682911  0.19163659  0.94836882    -0.06100
C1331       C  0.36119850  0.18201013  0.91733054    -0.21200
C1332       C  0.37442833  0.17222352  0.91999285     0.24500
C1333       C  0.38281146  0.17175517  0.95493048    -0.18800
C1334       C  0.37863201  0.18156032  0.98550178    -0.08700
C1335       C  0.38078679  0.16475938  0.88450526    -0.19000
C1336       C  0.39057389  0.15234200  0.88514604    -0.23800
C1337       C  0.40079766  0.14810106  0.85201614     0.26600
C1338       C  0.40663333  0.13272487  0.84868514    -0.20600
C1339       C  0.41822332  0.12911248  0.82134137    -0.10200
C1340       C  0.42445211  0.14096336  0.79774336    -0.10800
C1341       C  0.41826048  0.15619684  0.80026596    -0.03700
C1342       C  0.40652975  0.15972417  0.82690538    -0.18800
H1343       H  0.34714409  0.19973114  0.94494635     0.10300
H1344       H  0.35469124  0.18275586  0.89055485     0.10400
H1345       H  0.39331476  0.16475067  0.95784015     0.10000
H1346       H  0.38588996  0.18173544  0.01116400     0.11100
H1347       H  0.37823608  0.17046462  0.85718033     0.11200
H1348       H  0.39199628  0.14566522  0.91161095     0.13100
H1349       H  0.40254853  0.12361912  0.86804582     0.09600
H1350       H  0.42287706  0.11729874  0.82004196     0.11700
H1351       H  0.42283348  0.16554132  0.78228465     0.08300
H1352       H  0.40267633  0.17178592  0.82925057     0.11100
C1353       C  0.46077748  0.07725747  0.74915023    -0.03500
C1354       C  0.44721337  0.06950227  0.73618840    -0.06100
C1355       C  0.44512148  0.05343343  0.74328087    -0.21200
C1356       C  0.45667230  0.04477642  0.76272539     0.24500
C1357       C  0.46997004  0.05264337  0.77680620    -0.18800
C1358       C  0.47197669  0.06867921  0.77016000    -0.08700
C1359       C  0.45478269  0.02755489  0.76779508    -0.19000
C1360       C  0.46714402  0.01776562  0.76590924    -0.23800
C1361       C  0.46616143  0.00044256  0.77003450     0.26600
C1362       C  0.47800496  0.99131919  0.75326324    -0.20600
C1363       C  0.47839704  0.97510496  0.75868140    -0.10200
C1364       C  0.46705543  0.96756555  0.78159648    -0.10800
C1365       C  0.45498740  0.97664333  0.79795118    -0.03700
C1366       C  0.45451074  0.99294687  0.79215624    -0.18800
H1367       H  0.43832602  0.07579718  0.72014591     0.10300
H1368       H  0.43469389  0.04765165  0.73254268     0.10400
H1369       H  0.47886438  0.04640721  0.79295412     0.10000
H1370       H  0.48250846  0.07428353  0.78083969     0.11100
H1371       H  0.44301637  0.02283823  0.77051325     0.11200
H1372       H  0.47860569  0.02261678  0.75920572     0.13100
H1373       H  0.48714684  0.99679893  0.73623060     0.09600
H1374       H  0.48789076  0.96853299  0.74568006     0.11700
H1375       H  0.44614494  0.97121156  0.81596480     0.08300
H1376       H  0.44538863  0.99968023  0.80616090     0.11100
C1377       C  0.55991646  0.86752969  0.35547364    -0.03500
C1378       C  0.57175447  0.87058943  0.38261817    -0.06100
C1379       C  0.57920006  0.85823541  0.40185314    -0.21200
C1380       C  0.57526811  0.84262331  0.39347052     0.24500
C1381       C  0.56319069  0.83954921  0.36696331    -0.18800
C1382       C  0.55550688  0.85190212  0.34836350    -0.08700
C1383       C  0.58405236  0.82975324  0.41234671    -0.19000
C1384       C  0.58813912  0.81665714  0.39315185    -0.23800
C1385       C  0.59808722  0.80426533  0.41038672     0.26600
C1386       C  0.60864048  0.79613820  0.38665206    -0.20600
C1387       C  0.61822747  0.78439723  0.40194792    -0.10200
C1388       C  0.61711278  0.78026594  0.44111067    -0.10800
C1389       C  0.60634440  0.78820366  0.46477307    -0.03700
C1390       C  0.59699007  0.80019360  0.44963052    -0.18800
H1391       H  0.57528663  0.88253187  0.38885701     0.10300
H1392       H  0.58838561  0.86085169  0.42244661     0.10400
H1393       H  0.55969033  0.82761002  0.36061975     0.10000
H1394       H  0.54640199  0.84920511  0.32762648     0.11100
H1395       H  0.58846617  0.83171805  0.44136009     0.11200
H1396       H  0.58515358  0.81555317  0.36277419     0.13100
H1397       H  0.60959115  0.79901432  0.35627339     0.09600
H1398       H  0.62632748  0.77835782  0.38299254     0.11700
H1399       H  0.60523420  0.78520627  0.49503739     0.08300
H1400       H  0.58871271  0.80604728  0.46843059     0.11100
C1401       C  0.57709062  0.90013420  0.21904793    -0.03500
C1402       C  0.58036467  0.91113248  0.19000440    -0.06100
C1403       C  0.59132825  0.90758433  0.16107778    -0.21200
C1404       C  0.59948982  0.89324643  0.16160012     0.24500
C1405       C  0.59665180  0.88262801  0.19187112    -0.18800
C1406       C  0.58549169  0.88599749  0.22004311    -0.08700
C1407       C  0.60896489  0.88840966  0.12768273    -0.19000
C1408       C  0.62069424  0.87786748  0.13025190    -0.23800
C1409       C  0.62619884  0.86842326  0.09687118     0.26600
C1410       C  0.64095830  0.86109655  0.09832768    -0.20600
C1411       C  0.64512884  0.84972529  0.07088028    -0.10200
C1412       C  0.63437784  0.84524371  0.04233472    -0.10800
C1413       C  0.61991258  0.85299920  0.03995526    -0.03700
C1414       C  0.61589201  0.86453580  0.06669911    -0.18800
H1415       H  0.57385969  0.92202948  0.18851821     0.10300
H1416       H  0.59310949  0.91581921  0.13766420     0.10400
H1417       H  0.60231292  0.87126687  0.19261096     0.10000
H1418       H  0.58308680  0.87732447  0.24214880     0.11100
H1419       H  0.60520512  0.89255987  0.09952956     0.11200
H1420       H  0.62541482  0.87489298  0.15843686     0.13100
H1421       H  0.64899943  0.86372082  0.12163178     0.09600
H1422       H  0.65628789  0.84376242  0.07340412     0.11700
H1423       H  0.61143517  0.84968513  0.01814442     0.08300
H1424       H  0.60426294  0.86954920  0.06515532     0.11100
C1425       C  0.50828901  0.91378033  0.18360505    -0.03500
C1426       C  0.49351116  0.92092037  0.17999172    -0.06100
C1427       C  0.48751368  0.92469702  0.14354550    -0.21200
C1428       C  0.49626178  0.92170289  0.11002472     0.24500
C1429       C  0.51108599  0.91463764  0.11363817    -0.18800
C1430       C  0.51701323  0.91071686  0.15000040    -0.08700
C1431       C  0.48921595  0.92500245  0.07162667    -0.19000
C1432       C  0.49785201  0.92832040  0.04007357    -0.23800
C1433       C  0.49119867  0.92977950  0.00053287     0.26600
C1434       C  0.49976519  0.93786627  0.97218385    -0.20600
C1435       C  0.49482806  0.93792370  0.93363230    -0.10200
C1436       C  0.48124521  0.92976313  0.92253471    -0.10800
C1437       C  0.47240369  0.92207546  0.95116063    -0.03700
C1438       C  0.47732417  0.92204100  0.98965922    -0.18800
H1439       H  0.48649828  0.92344316  0.20530248     0.10300
H1440       H  0.47599999  0.92997841  0.14150843     0.10400
H1441       H  0.51796479  0.91171724  0.08839363     0.10000
H1442       H  0.52843580  0.90522979  0.15175525     0.11100
H1443       H  0.47652711  0.92484235  0.06958447     0.11200
H1444       H  0.51040397  0.92999745  0.04315552     0.13100
H1445       H  0.51053740  0.94384895  0.97973820     0.09600
H1446       H  0.50192146  0.94393984  0.91234947     0.11700
H1447       H  0.46195220  0.91554941  0.94361812     0.08300
H1448       H  0.47060770  0.91531669  0.01034073     0.11100
C1449       C  0.49519064  0.91667835  0.67985850    -0.03500
C1450       C  0.48528677  0.91192329  0.64961048    -0.06100
C1451       C  0.48923320  0.91487667  0.61126895    -0.21200
C1452       C  0.50329278  0.92245086  0.60186199     0.24500
C1453       C  0.51326402  0.92735901  0.63197151    -0.18800
C1454       C  0.50920552  0.92452922  0.67066930    -0.08700
C1455       C  0.50679962  0.92503032  0.56028851    -0.19000
C1456       C  0.52133254  0.92674220  0.54573463    -0.23800
C1457       C  0.52442307  0.92710972  0.50343172     0.26600
C1458       C  0.53875128  0.92135049  0.48954248    -0.20600
C1459       C  0.54155942  0.92026639  0.44984163    -0.10200
C1460       C  0.53014320  0.92512229  0.42308513    -0.10800
C1461       C  0.51609308  0.93159312  0.43700538    -0.03700
C1462       C  0.51326617  0.93261798  0.47671610    -0.18800
H1463       H  0.47435621  0.90594485  0.65549362     0.10300
H1464       H  0.48129261  0.91104696  0.58875470     0.10400
H1465       H  0.52403512  0.93357055  0.62585381     0.10000
H1466       H  0.51700888  0.92847196  0.69332078     0.11100
H1467       H  0.49699192  0.92402904  0.54049126     0.11200
H1468       H  0.53136216  0.92626787  0.56495423     0.13100
H1469       H  0.54760634  0.91718239  0.50946049     0.09600
H1470       H  0.55256116  0.91531691  0.44012749     0.11700
H1471       H  0.50711538  0.93556809  0.41720400     0.08300
H1472       H  0.50230447  0.93765757  0.48630624     0.11100
C1473       C  0.39818202  0.20656673  0.11816019    -0.03500
C1474       C  0.39546622  0.19142205  0.13281874    -0.06100
C1475       C  0.40785276  0.18235291  0.14703979    -0.21200
C1476       C  0.42322622  0.18821416  0.14727044     0.24500
C1477       C  0.42591698  0.20351335  0.13337405    -0.18800
C1478       C  0.41352355  0.21258895  0.11913292    -0.08700
C1479       C  0.43620202  0.17769849  0.15988744    -0.19000
C1480       C  0.45014874  0.18296016  0.17275736    -0.23800
C1481       C  0.46321844  0.17242518  0.18453448     0.26600
C1482       C  0.47435947  0.17802750  0.21093063    -0.20600
C1483       C  0.48706759  0.16869981  0.22200617    -0.10200
C1484       C  0.48909631  0.15360272  0.20640808    -0.10800
C1485       C  0.47804055  0.14802426  0.17961715    -0.03700
C1486       C  0.46521893  0.15731043  0.16883059    -0.18800
H1487       H  0.38381767  0.18638516  0.13233508     0.10300
H1488       H  0.40544470  0.17059773  0.15738085     0.10400
H1489       H  0.43762810  0.20832926  0.13201226     0.10000
H1490       H  0.41606944  0.22412490  0.10759886     0.11100
H1491       H  0.43392769  0.16516112  0.15968569     0.11200
H1492       H  0.45193078  0.19547959  0.17649606     0.13100
H1493       H  0.47319147  0.18966836  0.22317733     0.09600
H1494       H  0.49540325  0.17339441  0.24254631     0.11700
H1495       H  0.47929847  0.13647263  0.16694953     0.08300
H1496       H  0.45713238  0.15274762  0.14757065     0.11100
C1497       C  0.52861381  0.11295326  0.10350996    -0.03500
C1498       C  0.53945383  0.11870186  0.07638614    -0.06100
C1499       C  0.53581008  0.11894770  0.03706837    -0.21200
C1500       C  0.52117334  0.11371140  0.02397524     0.24500
C1501       C  0.51049598  0.10744920  0.05087352    -0.18800
C1502       C  0.51419709  0.10706725  0.09024371    -0.08700
C1503       C  0.51743532  0.11513868  0.98222219    -0.19000
C1504       C  0.50276750  0.11745315  0.96909312    -0.23800
C1505       C  0.49895887  0.12049324  0.92787801     0.26600
C1506       C  0.48509932  0.12859903  0.91920993    -0.20600
C1507       C  0.48099393  0.13178556  0.88098995    -0.10200
C1508       C  0.49058595  0.12677258  0.85037874    -0.10800
C1509       C  0.50439100  0.11847568  0.85893589    -0.03700
C1510       C  0.50854941  0.11535592  0.89728780    -0.18800
H1511       H  0.55069464  0.12325627  0.08559073     0.10300
H1512       H  0.54429272  0.12368047  0.01691266     0.10400
H1513       H  0.49928591  0.10285698  0.04164514     0.10000
H1514       H  0.50562093  0.10250158  0.11037182     0.11100
H1515       H  0.52721901  0.11574197  0.96225948     0.11200
H1516       H  0.49322340  0.11836772  0.98970850     0.13100
H1517       H  0.47745143  0.13259823  0.94215982     0.09600
H1518       H  0.47021374  0.13809769  0.87544731     0.11700
H1519       H  0.51195533  0.11433206  0.83599394     0.08300
H1520       H  0.51910483  0.10869388  0.90272028     0.11100
C1521       C  0.47890465  0.11248023  0.60745825    -0.03500
C1522       C  0.49197359  0.10318166  0.59820535    -0.06100
C1523       C  0.49707968  0.10186496  0.55995084    -0.21200
C1524       C  0.48920591  0.10969702  0.53003261     0.24500
C1525       C  0.47587162  0.11868059  0.53912007    -0.18800
C1526       C  0.47077227  0.12001242  0.57737352    -0.08700
C1527       C  0.49610117  0.10944231  0.49058081    -0.19000
C1528       C  0.48799061  0.11265484  0.45814626    -0.23800
C1529       C  0.49557991  0.11413978  0.41965873     0.26600
C1530       C  0.48679835  0.11119046  0.38615847    -0.20600
C1531       C  0.49337118  0.11350454  0.34952342    -0.10200
C1532       C  0.50877778  0.11913560  0.34572183    -0.10800
C1533       C  0.51758490  0.12198693  0.37928034    -0.03700
C1534       C  0.51108404  0.11951980  0.41579231    -0.18800
H1535       H  0.49851652  0.09723976  0.62063924     0.10300
H1536       H  0.50743652  0.09495383  0.55379803     0.10400
H1537       H  0.46972104  0.12525255  0.51713462     0.10000
H1538       H  0.46073866  0.12738419  0.58350134     0.11100
H1539       H  0.50843930  0.10647090  0.48831188     0.11200
H1540       H  0.47537294  0.11412473  0.45952975     0.13100
H1541       H  0.47478319  0.10719189  0.38836221     0.09600
H1542       H  0.48626423  0.11126831  0.32422345     0.11700
H1543       H  0.52947635  0.12636269  0.37736544     0.08300
H1544       H  0.51807197  0.12237527  0.44088087     0.11100
C1545       C  0.54338927  0.07224325  0.24113016    -0.03500
C1546       C  0.55722933  0.06485577  0.22852621    -0.06100
C1547       C  0.55967570  0.04877736  0.23523032    -0.21200
C1548       C  0.54824050  0.03968807  0.25400795     0.24500
C1549       C  0.53457138  0.04715624  0.26732688    -0.18800
C1550       C  0.53219306  0.06318999  0.26099231    -0.08700
C1551       C  0.55075076  0.02250096  0.25970548    -0.19000
C1552       C  0.53875272  0.01221204  0.25855053    -0.23800
C1553       C  0.54018362  0.99490745  0.26376116     0.26600
C1554       C  0.52830855  0.98540540  0.24844426    -0.20600
C1555       C  0.52806690  0.96928198  0.25539679    -0.10200
C1556       C  0.53961490  0.96213534  0.27841272    -0.10800
C1557       C  0.55183424  0.97153521  0.29298863    -0.03700
C1558       C  0.55213832  0.98779091  0.28569840    -0.18800
H1559       H  0.56613397  0.07147601  0.21333055     0.10300
H1560       H  0.57037733  0.04335297  0.22500716     0.10400
H1561       H  0.52571860  0.04064975  0.28297721     0.10000
H1562       H  0.52145522  0.06846592  0.27143669     0.11100
H1563       H  0.56267242  0.01822971  0.26266122     0.11200
H1564       H  0.52713196  0.01662509  0.25176822     0.13100
H1565       H  0.51895867  0.99053831  0.23147431     0.09600
H1566       H  0.51850935  0.96247351  0.24346777     0.11700
H1567       H  0.56087937  0.96642223  0.31092889     0.08300
H1568       H  0.56134435  0.99479818  0.29849535     0.11100
C1569       C  0.94245674  0.67129276  0.17202010    -0.03500
C1570       C  0.92685685  0.66947051  0.15983824    -0.06100
C1571       C  0.91850985  0.68209546  0.14452868    -0.21200
C1572       C  0.92546202  0.69693590  0.14065322     0.24500
C1573       C  0.94118567  0.69880954  0.15233988    -0.18800
C1574       C  0.94958751  0.68609175  0.16782506    -0.08700
C1575       C  0.91547819  0.71001626  0.12590839    -0.19000
C1576       C  0.92073071  0.72421366  0.11448539    -0.23800
C1577       C  0.91005069  0.73681011  0.10011066     0.26600
C1578       C  0.91596160  0.74835245  0.07507780    -0.20600
C1579       C  0.90622862  0.76027970  0.06088641    -0.10200
C1580       C  0.89038576  0.76108728  0.07193680    -0.10800
C1581       C  0.88454212  0.74972551  0.09758565    -0.03700
C1582       C  0.89422969  0.73775308  0.11153688    -0.18800
H1583       H  0.92092801  0.65829292  0.16271580     0.10300
H1584       H  0.90643738  0.68025702  0.13598887     0.10400
H1585       H  0.94696148  0.71007335  0.15054481     0.10000
H1586       H  0.96155597  0.68791902  0.17716308     0.11100
H1587       H  0.90305845  0.70751305  0.12326404     0.11200
H1588       H  0.93321432  0.72655905  0.11386421     0.13100
H1589       H  0.92812308  0.74804853  0.06614647     0.09600
H1590       H  0.91114434  0.76893938  0.04146297     0.11700
H1591       H  0.87243202  0.75006453  0.10689997     0.08300
H1592       H  0.88930506  0.72946258  0.13182648     0.11100
C1593       C  0.92845075  0.63616811  0.30633678    -0.03500
C1594       C  0.93275910  0.64072672  0.34374319    -0.06100
C1595       C  0.92135407  0.64507755  0.37061776    -0.21200
C1596       C  0.90548749  0.64552423  0.36013265     0.24500
C1597       C  0.90108354  0.64038230  0.32307937    -0.18800
C1598       C  0.91251071  0.63556386  0.29646770    -0.08700
C1599       C  0.89414236  0.65259954  0.38754184    -0.19000
C1600       C  0.88327576  0.66302496  0.37596242    -0.23800
C1601       C  0.87610543  0.67421766  0.40356406     0.26600
C1602       C  0.87628621  0.69022254  0.39427035    -0.20600
C1603       C  0.87236595  0.70143129  0.42201094    -0.10200
C1604       C  0.86763472  0.69682546  0.45911431    -0.10800
C1605       C  0.86617308  0.68078358  0.46758404    -0.03700
C1606       C  0.87058098  0.66951378  0.44007809    -0.18800
H1607       H  0.94501401  0.64139462  0.35174505     0.10300
H1608       H  0.92501719  0.64899425  0.39896619     0.10400
H1609       H  0.88889366  0.64046896  0.31443538     0.10000
H1610       H  0.90899148  0.63227582  0.26753872     0.11100
H1611       H  0.89666524  0.65154164  0.41818720     0.11200
H1612       H  0.88203776  0.66550986  0.34534487     0.13100
H1613       H  0.88049320  0.69410566  0.36634356     0.09600
H1614       H  0.87361895  0.71375877  0.41499862     0.11700
H1615       H  0.86265346  0.67701489  0.49615946     0.08300
H1616       H  0.87019936  0.65719502  0.44770936     0.11100
C1617       C  0.96600350  0.46396782  0.26208339    -0.03500
C1618       C  0.97789705  0.47117737  0.24021889    -0.06100
C1619       C  0.97792342  0.48740844  0.23417242    -0.21200
C1620       C  0.96598219  0.49692325  0.24928453     0.24500
C1621       C  0.95371817  0.48971068  0.26996698    -0.18800
C1622       C  0.95375498  0.47340812  0.27633523    -0.08700
C1623       C  0.96753509  0.51431512  0.24542028    -0.19000
C1624       C  0.95547830  0.52455014  0.24687515    -0.23800
C1625       C  0.95774332  0.54187951  0.24323682     0.26600
C1626       C  0.94606014  0.55108247  0.22583051    -0.20600
C1627       C  0.94806625  0.56733558  0.22133477    -0.10200
C1628       C  0.96171113  0.57482970  0.23481321    -0.10800
C1629       C  0.97315445  0.56566310  0.25345683    -0.03700
C1630       C  0.97122048  0.54941181  0.25754929    -0.18800
H1631       H  0.98754310  0.46434594  0.22880057     0.10300
H1632       H  0.98752942  0.49260837  0.21820644     0.10400
H1633       H  0.94445865  0.49666997  0.28269031     0.10000
H1634       H  0.94447808  0.46828239  0.29354189     0.11100
H1635       H  0.97921618  0.51883786  0.23979865     0.11200
H1636       H  0.94356875  0.52014136  0.24872087     0.13100
H1637       H  0.93548479  0.54562605  0.21493964     0.09600
H1638       H  0.93898403  0.57400854  0.20696596     0.11700
H1639       H  0.98375946  0.57101505  0.26446002     0.08300
H1640       H  0.98024965  0.54278904  0.27222716     0.11100
C1641       C  0.10183107  0.32648873  0.42930722    -0.03500
C1642       C  0.08678028  0.32162219  0.44055714    -0.06100
C1643       C  0.07347416  0.32866759  0.42476103    -0.21200
C1644       C  0.07491786  0.34099768  0.39820976     0.24500
C1645       C  0.08997514  0.34582032  0.38661795    -0.18800
C1646       C  0.10331926  0.33853215  0.40184489    -0.08700
C1647       C  0.06048763  0.34827478  0.38248238    -0.19000
C1648       C  0.05953205  0.36358854  0.37333555    -0.23800
C1649       C  0.04486801  0.37094895  0.35910917     0.26600
C1650       C  0.04190565  0.38674605  0.36779747    -0.20600
C1651       C  0.02835418  0.39412674  0.35422507    -0.10200
C1652       C  0.01761841  0.38592960  0.33095483    -0.10800
C1653       C  0.02062558  0.37011216  0.32209309    -0.03700
C1654       C  0.03408623  0.36267605  0.33610217    -0.18800
H1655       H  0.08529880  0.31232728  0.46157600     0.10300
H1656       H  0.06200005  0.32467171  0.43385907     0.10400
H1657       H  0.09144975  0.35506993  0.36550911     0.10000
H1658       H  0.11479196  0.34254094  0.39280125     0.11100
H1659       H  0.05003657  0.34102175  0.38101277     0.11200
H1660       H  0.06951512  0.37119724  0.37868192     0.13100
H1661       H  0.05008172  0.39338152  0.38528456     0.09600
H1662       H  0.02643399  0.40634707  0.36139325     0.11700
H1663       H  0.01263123  0.36350264  0.30406604     0.08300
H1664       H  0.03621217  0.35058548  0.32809388     0.11100
C1665       C  0.98882142  0.65394453  0.69185457    -0.03500
C1666       C  0.97870278  0.64649139  0.66556239    -0.06100
C1667       C  0.96535459  0.65411620  0.65178812    -0.21200
C1668       C  0.96182146  0.66947166  0.66340969     0.24500
C1669       C  0.97182473  0.67697497  0.68999042    -0.18800
C1670       C  0.98518846  0.66926394  0.70409814    -0.08700
C1671       C  0.94735961  0.67693207  0.64790949    -0.19000
C1672       C  0.94538079  0.69256163  0.64437457    -0.23800
C1673       C  0.93110929  0.69975080  0.62696135     0.26600
C1674       C  0.93221248  0.71470313  0.61012911    -0.20600
C1675       C  0.91909716  0.72179222  0.59322612    -0.10200
C1676       C  0.90450413  0.71412345  0.59305505    -0.10800
C1677       C  0.90332847  0.69927160  0.61053076    -0.03700
C1678       C  0.91643975  0.69218512  0.62739194    -0.18800
H1679       H  0.98104836  0.63467232  0.65561942     0.10300
H1680       H  0.95780533  0.64800836  0.63162758     0.10400
H1681       H  0.96924014  0.68865520  0.70044278     0.10000
H1682       H  0.99265072  0.67527877  0.72459128     0.11100
H1683       H  0.93844242  0.66910497  0.63658199     0.11200
H1684       H  0.95490535  0.70037480  0.65225001     0.13100
H1685       H  0.94332565  0.72084377  0.60959623     0.09600
H1686       H  0.92043488  0.73322297  0.57996034     0.11700
H1687       H  0.89225495  0.69306846  0.61111112     0.08300
H1688       H  0.91495009  0.68088487  0.64113154     0.11100
C1689       C  0.99712635  0.62399291  0.33673145    -0.03500
C1690       C  0.01178616  0.61664402  0.34066424    -0.06100
C1691       C  0.01831775  0.61419118  0.37734110    -0.21200
C1692       C  0.01022553  0.61874445  0.41086282     0.24500
C1693       C  0.99552816  0.62603147  0.40689783    -0.18800
C1694       C  0.98908129  0.62861455  0.37034532    -0.08700
C1695       C  0.01767840  0.61652789  0.44940921    -0.19000
C1696       C  0.00929853  0.61441192  0.48203936    -0.23800
C1697       C  0.01625183  0.61310866  0.52138898     0.26600
C1698       C  0.00737008  0.60602731  0.55074259    -0.20600
C1699       C  0.01270789  0.60584593  0.58893105    -0.10200
C1700       C  0.02702124  0.61293570  0.59888068    -0.10800
C1701       C  0.03611891  0.61972529  0.56935117    -0.03700
C1702       C  0.03081580  0.61980633  0.53103016    -0.18800
H1703       H  0.01831005  0.61299031  0.31539853     0.10300
H1704       H  0.02971879  0.60868632  0.37955941     0.10400
H1705       H  0.98913292  0.63013630  0.43191706     0.10000
H1706       H  0.97778408  0.63435004  0.36845345     0.11100
H1707       H  0.03037960  0.61618252  0.45058391     0.11200
H1708       H  0.99665611  0.61326283  0.47993513     0.13100
H1709       H  0.99607748  0.60086371  0.54422357     0.09600
H1710       H  0.00534394  0.60059733  0.61088268     0.11700
H1711       H  0.04714246  0.62540426  0.57601613     0.08300
H1712       H  0.03784829  0.62570095  0.50946540     0.11100
C1713       C  0.97390065  0.61478009  0.09647812    -0.03500
C1714       C  0.96323199  0.62130317  0.06999801    -0.06100
C1715       C  0.96645179  0.62126599  0.03038621    -0.21200
C1716       C  0.98048735  0.61491763  0.01622808     0.24500
C1717       C  0.99093554  0.60787232  0.04252693    -0.18800
C1718       C  0.98767424  0.60782758  0.08219441    -0.08700
C1719       C  0.98389334  0.61606336  0.97407720    -0.19000
C1720       C  0.99858287  0.61690315  0.95994851    -0.23800
C1721       C  0.00247349  0.61971031  0.91856563     0.26600
C1722       C  0.01718029  0.62612357  0.90987882    -0.20600
C1723       C  0.02159504  0.62897566  0.87174369    -0.10200
C1724       C  0.01153840  0.62523627  0.84095988    -0.10800
C1725       C  0.99683285  0.61861147  0.84940794    -0.03700
C1726       C  0.99228870  0.61593712  0.88787903    -0.18800
H1727       H  0.95248014  0.62671046  0.07992523     0.10300
H1728       H  0.95813023  0.62663280  0.01081110     0.10400
H1729       H  0.00164051  0.60239339  0.03263568     0.10000
H1730       H  0.99610261  0.60262494  0.10173893     0.11100
H1731       H  0.97403093  0.61766642  0.95470112     0.11200
H1732       H  0.00834517  0.61675453  0.98003450     0.13100
H1733       H  0.02530492  0.62906519  0.93280093     0.09600
H1734       H  0.03302925  0.63397671  0.86639968     0.11700
H1735       H  0.98884469  0.61554042  0.82633092     0.08300
H1736       H  0.98097868  0.61066279  0.89335026     0.11100
C1737       C  0.01492478  0.42231012  0.90962911    -0.03500
C1738       C  0.99945795  0.42108362  0.92311264    -0.06100
C1739       C  0.99635524  0.42007579  0.96254793    -0.21200
C1740       C  0.00859286  0.42014625  0.98960861     0.24500
C1741       C  0.02411161  0.42173090  0.97621132    -0.18800
C1742       C  0.02721136  0.42286358  0.93658233    -0.08700
C1743       C  0.00439213  0.41789041  0.03093705    -0.19000
C1744       C  0.01459467  0.41732223  0.06060495    -0.23800
C1745       C  0.00929622  0.41416281  0.10071343     0.26600
C1746       C  0.01738302  0.42084491  0.13192889    -0.20600
C1747       C  0.01204740  0.41863306  0.16980369    -0.10200
C1748       C  0.99863371  0.40950522  0.17707662    -0.10800
C1749       C  0.99101268  0.40224217  0.14587937    -0.03700
C1750       C  0.99630345  0.40448171  0.10821187    -0.18800
H1751       H  0.98971173  0.42067094  0.90312607     0.10300
H1752       H  0.98429227  0.41890802  0.97188731     0.10400
H1753       H  0.03394555  0.42183111  0.99579599     0.10000
H1754       H  0.03926195  0.42371261  0.92699601     0.11100
H1755       H  0.99199516  0.41653410  0.03719920     0.11200
H1756       H  0.02693456  0.41966855  0.05615097     0.13100
H1757       H  0.02758447  0.42813033  0.12690739     0.09600
H1758       H  0.01825739  0.42427092  0.19326493     0.11700
H1759       H  0.98077866  0.39495710  0.15045196     0.08300
H1760       H  0.99018634  0.39856970  0.08503830     0.11100
C1761       C  0.99874420  0.41871536  0.67080831    -0.03500
C1762       C  0.99180418  0.40642843  0.64988007    -0.06100
C1763       C  0.98551365  0.40912840  0.61331295    -0.21200
C1764       C  0.98630238  0.42406875  0.59645119     0.24500
C1765       C  0.99296128  0.43649112  0.61762445    -0.18800
C1766       C  0.99905680  0.43383455  0.65460246    -0.08700
C1767       C  0.98017843  0.42605091  0.55667425    -0.19000
C1768       C  0.98590275  0.43661692  0.53141523    -0.23800
C1769       C  0.98154902  0.43639627  0.48991017     0.26600
C1770       C  0.99276193  0.44076211  0.46228439    -0.20600
C1771       C  0.98971686  0.43887291  0.42287342    -0.10200
C1772       C  0.97532054  0.43267540  0.41037251    -0.10800
C1773       C  0.96373856  0.42925231  0.43798667    -0.03700
C1774       C  0.96678043  0.43116134  0.47732742    -0.18800
H1775       H  0.99119963  0.39469664  0.66182588     0.10300
H1776       H  0.98031809  0.39940117  0.59774941     0.10400
H1777       H  0.99338955  0.44824587  0.60586268     0.10000
H1778       H  0.00423731  0.44353890  0.67025222     0.11100
H1779       H  0.97187323  0.41730092  0.54662153     0.11200
H1780       H  0.99537180  0.44434631  0.54017605     0.13100
H1781       H  0.00417042  0.44497627  0.47126128     0.09600
H1782       H  0.99886345  0.44167036  0.40232085     0.11700
H1783       H  0.95243254  0.42469920  0.42926139     0.08300
H1784       H  0.95765109  0.42825745  0.49780319     0.11100
C1785       C  0.03258142  0.46507669  0.77799306    -0.03500
C1786       C  0.01954954  0.47493287  0.78326481    -0.06100
C1787       C  0.02064101  0.49103078  0.77676513    -0.21200
C1788       C  0.03478078  0.49790966  0.76493956     0.24500
C1789       C  0.04792022  0.48810796  0.75935144    -0.18800
C1790       C  0.04680021  0.47182780  0.76580127    -0.08700
C1791       C  0.03485375  0.51528340  0.75925853    -0.19000
C1792       C  0.04753002  0.52429696  0.75209869    -0.23800
C1793       C  0.04632401  0.54172371  0.74850937     0.26600
C1794       C  0.05675315  0.54989201  0.72440419    -0.20600
C1795       C  0.05529006  0.56616273  0.71915520    -0.10200
C1796       C  0.04345352  0.57463802  0.73831218    -0.10800
C1797       C  0.03349453  0.56654035  0.76377946    -0.03700
C1798       C  0.03494256  0.55033584  0.76895127    -0.18800
H1799       H  0.00837583  0.47022040  0.79251174     0.10300
H1800       H  0.01030678  0.49818401  0.78130177     0.10400
H1801       H  0.05902687  0.49284028  0.74993466     0.10000
H1802       H  0.05703855  0.46454892  0.76132621     0.11100
H1803       H  0.02353680  0.52103570  0.76140633     0.11200
H1804       H  0.05892004  0.51896466  0.74772578     0.13100
H1805       H  0.06578039  0.54360523  0.70877823     0.09600
H1806       H  0.06321719  0.57204139  0.69948470     0.11700
H1807       H  0.02438305  0.57269603  0.77941449     0.08300
H1808       H  0.02712034  0.54461782  0.78911442     0.11100
C1809       C  0.11321824  0.28595761  0.94266864    -0.03500
C1810       C  0.09716961  0.28629312  0.95194791    -0.06100
C1811       C  0.08737978  0.29801881  0.93710890    -0.21200
C1812       C  0.09341926  0.30992738  0.91340229     0.24500
C1813       C  0.10949714  0.30972148  0.90429546    -0.18800
C1814       C  0.11926056  0.29779187  0.91854906    -0.08700
C1815       C  0.08250254  0.32184085  0.89698642    -0.19000
C1816       C  0.08665315  0.33684183  0.89001130    -0.23800
C1817       C  0.07566231  0.34869956  0.87363972     0.26600
C1818       C  0.07716529  0.36449057  0.88458190    -0.20600
C1819       C  0.06748061  0.37603584  0.86846518    -0.10200
C1820       C  0.05632844  0.37211859  0.84017221    -0.10800
C1821       C  0.05484008  0.35630073  0.82910779    -0.03700
C1822       C  0.06430669  0.34469428  0.84587498    -0.18800
H1823       H  0.09210041  0.27732134  0.97024339     0.10300
H1824       H  0.07502796  0.29782553  0.94431617     0.10400
H1825       H  0.11446220  0.31853040  0.88538867     0.10000
H1826       H  0.13155049  0.29785210  0.91076687     0.11100
H1827       H  0.07041591  0.31831361  0.89235373     0.11200
H1828       H  0.09827133  0.34080787  0.89830743     0.13100
H1829       H  0.08589739  0.36791148  0.90565259     0.09600
H1830       H  0.06906388  0.38812349  0.87730728     0.11700
H1831       H  0.04644583  0.35291630  0.80719786     0.08300
H1832       H  0.06307393  0.33268339  0.83616534     0.11100
C1833       C  0.13461154  0.34274473  0.56232671    -0.03500
C1834       C  0.13275313  0.33958844  0.60188860    -0.06100
C1835       C  0.12708123  0.35113379  0.62686585    -0.21200
C1836       C  0.12290222  0.36599289  0.61280082     0.24500
C1837       C  0.12581521  0.36954428  0.57376951    -0.18800
C1838       C  0.13165030  0.35801682  0.54878524    -0.08700
C1839       C  0.11449302  0.37690073  0.63909726    -0.19000
C1840       C  0.10348119  0.38703378  0.62657328    -0.23800
C1841       C  0.09195878  0.39454009  0.65293834     0.26600
C1842       C  0.07685536  0.39764586  0.63889019    -0.20600
C1843       C  0.06489580  0.40226144  0.66398153    -0.10200
C1844       C  0.06787838  0.40413443  0.70359281    -0.10800
C1845       C  0.08329500  0.40233722  0.71713329    -0.03700
C1846       C  0.09523742  0.39755026  0.69206521    -0.18800
H1847       H  0.13505919  0.32797998  0.61329478     0.10300
H1848       H  0.12512514  0.34815076  0.65688816     0.10400
H1849       H  0.12320805  0.38105066  0.56222668     0.10000
H1850       H  0.13304558  0.36083507  0.51849346     0.11100
H1851       H  0.11568790  0.37477152  0.66984666     0.11200
H1852       H  0.10125528  0.38802451  0.59581953     0.13100
H1853       H  0.07406561  0.39562383  0.60879113     0.09600
H1854       H  0.05316352  0.40373423  0.65263416     0.11700
H1855       H  0.08596460  0.40379178  0.74748629     0.08300
H1856       H  0.10687885  0.39580659  0.70363675     0.11100
C1857       C  0.07937990  0.90167951  0.29409813    -0.03500
C1858       C  0.09452072  0.90240000  0.27843551    -0.06100
C1859       C  0.10715367  0.89582138  0.29851752    -0.21200
C1860       C  0.10481650  0.88895191  0.33488206     0.24500
C1861       C  0.08976619  0.88916532  0.35140272    -0.18800
C1862       C  0.07714427  0.89534382  0.33098896    -0.08700
C1863       C  0.11750179  0.87983034  0.35333821    -0.19000
C1864       C  0.11909978  0.87946256  0.39185796    -0.23800
C1865       C  0.12831384  0.86744277  0.41264508     0.26600
C1866       C  0.13342005  0.87082501  0.45013432    -0.20600
C1867       C  0.13893995  0.85889359  0.47408941    -0.10200
C1868       C  0.13916643  0.84324549  0.46122530    -0.10800
C1869       C  0.13509369  0.84000527  0.42272149    -0.03700
C1870       C  0.12972563  0.85201334  0.39856404    -0.18800
H1871       H  0.09635844  0.90695328  0.24959088     0.10300
H1872       H  0.11862693  0.89559824  0.28515204     0.10400
H1873       H  0.08753175  0.88359608  0.37896013     0.10000
H1874       H  0.06547358  0.89446086  0.34315199     0.11100
H1875       H  0.12496524  0.87263775  0.33511332     0.11200
H1876       H  0.11249045  0.88775700  0.40929875     0.13100
H1877       H  0.13236590  0.88260774  0.46160778     0.09600
H1878       H  0.14205130  0.86181282  0.50353046     0.11700
H1879       H  0.13514510  0.82806990  0.41196624     0.08300
H1880       H  0.12559366  0.84895794  0.37000229     0.11100
C1881       C  0.10373928  0.82986092  0.59276224    -0.03500
C1882       C  0.09058064  0.83193410  0.56881521    -0.06100
C1883       C  0.07708307  0.83931513  0.58247846    -0.21200
C1884       C  0.07614746  0.84467589  0.62064844     0.24500
C1885       C  0.08914749  0.84239942  0.64514636    -0.18800
C1886       C  0.10284113  0.83509289  0.63125552    -0.08700
C1887       C  0.06180287  0.85346940  0.63237732    -0.19000
C1888       C  0.05656141  0.85487211  0.66894827    -0.23800
C1889       C  0.04212539  0.86392995  0.67898145     0.26600
C1890       C  0.03346353  0.85984956  0.71199780    -0.20600
C1891       C  0.02007483  0.86839614  0.72256482    -0.10200
C1892       C  0.01517164  0.88139928  0.70062697    -0.10800
C1893       C  0.02388299  0.88550503  0.66766279    -0.03700
C1894       C  0.03717159  0.87691130  0.65697961    -0.18800
H1895       H  0.09076232  0.82809335  0.53901914     0.10300
H1896       H  0.06731909  0.84095153  0.56290263     0.10400
H1897       H  0.08896345  0.84665673  0.67456497     0.10000
H1898       H  0.11275621  0.83370447  0.65044411     0.11100
H1899       H  0.05483884  0.85845347  0.60919250     0.11200
H1900       H  0.06257150  0.84868938  0.69199921     0.13100
H1901       H  0.03706193  0.84999937  0.72966058     0.09600
H1902       H  0.01372783  0.86498505  0.74830794     0.11700
H1903       H  0.02054658  0.89552548  0.65027579     0.08300
H1904       H  0.04375906  0.88075966  0.63202743     0.11100
C1905       C  0.06185229  0.66941021  0.66281943    -0.03500
C1906       C  0.07638963  0.66663509  0.64500182    -0.06100
C1907       C  0.08467946  0.67884911  0.62755541    -0.21200
C1908       C  0.07876974  0.69421653  0.62753037     0.24500
C1909       C  0.06396673  0.69696262  0.64442977    -0.18800
C1910       C  0.05562035  0.68466971  0.66187456    -0.08700
C1911       C  0.08864103  0.70678365  0.60984865    -0.19000
C1912       C  0.08597499  0.72231608  0.61341430    -0.23800
C1913       C  0.09655038  0.73461451  0.59728819     0.26600
C1914       C  0.09050265  0.74972520  0.59120819    -0.20600
C1915       C  0.10009847  0.76183503  0.57766812    -0.10200
C1916       C  0.11607519  0.75917646  0.57017057    -0.10800
C1917       C  0.12218364  0.74406025  0.57626274    -0.03700
C1918       C  0.11256015  0.73191586  0.58975078    -0.18800
H1919       H  0.08152930  0.65501623  0.64501222     0.10300
H1920       H  0.09595360  0.67629585  0.61460657     0.10400
H1921       H  0.05870721  0.70848427  0.64447491     0.10000
H1922       H  0.04443125  0.68718099  0.67527636     0.11100
H1923       H  0.09881675  0.70291144  0.59367827     0.11200
H1924       H  0.07566425  0.72641734  0.62859573     0.13100
H1925       H  0.07827768  0.75219286  0.59704935     0.09600
H1926       H  0.09500084  0.77334469  0.57343061     0.11700
H1927       H  0.13445972  0.74164573  0.57104209     0.08300
H1928       H  0.11785956  0.72060843  0.59518123     0.11100
C1929       C  0.43005566  0.90619424  0.72221224    -0.03500
C1930       C  0.43436028  0.90356434  0.68371011    -0.06100
C1931       C  0.42343272  0.89782612  0.65723239    -0.21200
C1932       C  0.40815622  0.89413458  0.66914224     0.24500
C1933       C  0.40356648  0.89771688  0.70719086    -0.18800
C1934       C  0.41447126  0.90375978  0.73354566    -0.08700
C1935       C  0.39789972  0.88532714  0.64213537    -0.19000
C1936       C  0.38850172  0.87358129  0.65414746    -0.23800
C1937       C  0.38155007  0.86190089  0.62723117     0.26600
C1938       C  0.37957189  0.84639192  0.64001395    -0.20600
C1939       C  0.37487423  0.83460595  0.61439922    -0.10200
C1940       C  0.37181064  0.83813380  0.57548907    -0.10800
C1941       C  0.37281968  0.85385784  0.56329046    -0.03700
C1942       C  0.37766482  0.86562259  0.58885489    -0.18800
H1943       H  0.44639837  0.90516549  0.67466442     0.10300
H1944       H  0.42722837  0.89523737  0.62806973     0.10400
H1945       H  0.39176019  0.89529724  0.71694815     0.10000
H1946       H  0.41102434  0.90550562  0.76333603     0.11100
H1947       H  0.40006310  0.88682767  0.61146896     0.11200
H1948       H  0.38769796  0.87108688  0.68483801     0.13100
H1949       H  0.38235875  0.84323916  0.66951922     0.09600
H1950       H  0.37413002  0.82264303  0.62480761     0.11700
H1951       H  0.37044739  0.85700123  0.53357341     0.08300
H1952       H  0.37860981  0.87754322  0.57832568     0.11100
C1953       C  0.48885388  0.88029178  0.32653571    -0.03500
C1954       C  0.48413159  0.86700092  0.30541034    -0.06100
C1955       C  0.47092894  0.85834715  0.31657692    -0.21200
C1956       C  0.46229034  0.86260446  0.34941708     0.24500
C1957       C  0.46693709  0.87595358  0.37045682    -0.18800
C1958       C  0.48005836  0.88468317  0.35913211    -0.08700
C1959       C  0.44833999  0.85312792  0.36063038    -0.19000
C1960       C  0.44396003  0.85127375  0.39769756    -0.23800
C1961       C  0.43041933  0.84156104  0.41041938     0.26600
C1962       C  0.43076405  0.83522388  0.44772408    -0.20600
C1963       C  0.41796891  0.82692426  0.46227471    -0.10200
C1964       C  0.40429511  0.82493626  0.44012298    -0.10800
C1965       C  0.40397435  0.83106447  0.40240716    -0.03700
C1966       C  0.41694318  0.83927180  0.38760458    -0.18800
H1967       H  0.49057005  0.86333998  0.28002031     0.10300
H1968       H  0.46754037  0.84818972  0.29972176     0.10400
H1969       H  0.46029609  0.87985325  0.39528617     0.10000
H1970       H  0.48326060  0.89493869  0.37583175     0.11100
H1971       H  0.44218197  0.84676667  0.33810068     0.11200
H1972       H  0.45115486  0.85642737  0.42024626     0.13100
H1973       H  0.44096204  0.83683197  0.46592536     0.09600
H1974       H  0.41868787  0.82238954  0.49142348     0.11700
H1975       H  0.39361365  0.82978026  0.38465148     0.08300
H1976       H  0.41617349  0.84425481  0.35893943     0.11100
C1977       C  0.30936405  0.80979605  0.49945759    -0.03500
C1978       C  0.30525903  0.81978654  0.53010549    -0.06100
C1979       C  0.28946506  0.82216931  0.53983260    -0.21200
C1980       C  0.27742402  0.81507173  0.51833745     0.24500
C1981       C  0.28153337  0.80547983  0.48686310    -0.18800
C1982       C  0.29732353  0.80273547  0.47783902    -0.08700
C1983       C  0.26083464  0.81658547  0.53149642    -0.19000
C1984       C  0.24847449  0.81683943  0.50718065    -0.23800
C1985       C  0.23184537  0.81658216  0.52063741     0.26600
C1986       C  0.22014599  0.82397302  0.49857314    -0.20600
C1987       C  0.20426348  0.82265304  0.50879777    -0.10200
C1988       C  0.19972010  0.81346234  0.54059165    -0.10800
C1989       C  0.21142873  0.80619090  0.56283845    -0.03700
C1990       C  0.22730192  0.80786365  0.55326517    -0.18800
H1991       H  0.31427912  0.82528384  0.54744148     0.10300
H1992       H  0.28663417  0.82947092  0.56446326     0.10400
H1993       H  0.27257704  0.79956333  0.47020244     0.10000
H1994       H  0.30013963  0.79497619  0.45405992     0.11100
H1995       H  0.25877576  0.81765416  0.56233367     0.11200
H1996       H  0.25057445  0.81731956  0.47626863     0.13100
H1997       H  0.22329871  0.83062702  0.47308099     0.09600
H1998       H  0.19549257  0.82825631  0.49090381     0.11700
H1999       H  0.20827320  0.79900381  0.58743575     0.08300
H2000       H  0.23594696  0.80173372  0.57043688     0.11100
C2001       C  0.11620409  0.78376896  0.07088761    -0.03500
C2002       C  0.12385065  0.79819931  0.07638964    -0.06100
C2003       C  0.11560167  0.81137745  0.08889269    -0.21200
C2004       C  0.09944957  0.81062167  0.09615078     0.24500
C2005       C  0.09168251  0.79617085  0.09065723    -0.18800
C2006       C  0.10000654  0.78288374  0.07814237    -0.08700
C2007       C  0.09162286  0.82515231  0.11048779    -0.19000
C2008       C  0.07601976  0.82728278  0.11361135    -0.23800
C2009       C  0.06906796  0.84197399  0.12953834     0.26600
C2010       C  0.05447940  0.84123601  0.14812643    -0.20600
C2011       C  0.04804429  0.85457839  0.16555938    -0.10200
C2012       C  0.05601625  0.86903284  0.16453732    -0.10800
C2013       C  0.07027675  0.86994871  0.14437809    -0.03700
C2014       C  0.07669892  0.85660526  0.12690488    -0.18800
H2015       H  0.13631032  0.79934384  0.07121075     0.10300
H2016       H  0.12194222  0.82227133  0.09296610     0.10400
H2017       H  0.07931192  0.79491487  0.09646866     0.10000
H2018       H  0.09378249  0.77191459  0.07433089     0.11100
H2019       H  0.09933942  0.83459748  0.11944014     0.11200
H2020       H  0.06803685  0.81787592  0.10610883     0.13100
H2021       H  0.04825094  0.83018810  0.15016811     0.09600
H2022       H  0.03699458  0.85345838  0.18069255     0.11700
H2023       H  0.07661712  0.88093513  0.14260014     0.08300
H2024       H  0.08764017  0.85783423  0.11143150     0.11100
C2025       C  0.07647445  0.63609241  0.80357244    -0.03500
C2026       C  0.07102749  0.64045329  0.84019378    -0.06100
C2027       C  0.08147408  0.64504564  0.86899205    -0.21200
C2028       C  0.09757894  0.64594788  0.86138075     0.24500
C2029       C  0.10319294  0.64088977  0.82517484    -0.18800
C2030       C  0.09267236  0.63585204  0.79650329    -0.08700
C2031       C  0.10777254  0.65329772  0.89110065    -0.19000
C2032       C  0.11956891  0.66316469  0.88211292    -0.23800
C2033       C  0.12648186  0.67423822  0.91075773     0.26600
C2034       C  0.13171508  0.68896240  0.89786608    -0.20600
C2035       C  0.13617235  0.70058546  0.92422944    -0.10200
C2036       C  0.13584896  0.69760335  0.96409799    -0.10800
C2037       C  0.13166026  0.68251150  0.97693571    -0.03700
C2038       C  0.12696940  0.67095425  0.95058248    -0.18800
H2039       H  0.05858649  0.64091486  0.84600345     0.10300
H2040       H  0.07684925  0.64883222  0.89660154     0.10400
H2041       H  0.11559868  0.64121280  0.81872868     0.10000
H2042       H  0.09708643  0.63269934  0.76822953     0.11100
H2043       H  0.10370449  0.65269961  0.92076227     0.11200
H2044       H  0.12254871  0.66491603  0.85192398     0.13100
H2045       H  0.13160815  0.69176202  0.86736340     0.09600
H2046       H  0.13947585  0.71205447  0.91346864     0.11700
H2047       H  0.13132812  0.67984617  0.00749771     0.08300
H2048       H  0.12345814  0.65959478  0.96155154     0.11100
C2049       C  0.01471315  0.65582543  0.18813122    -0.03500
C2050       C  0.02140722  0.65151998  0.15257902    -0.06100
C2051       C  0.03389919  0.66003755  0.13705804    -0.21200
C2052       C  0.04023444  0.67291876  0.15686310     0.24500
C2053       C  0.03354570  0.67733810  0.19241214    -0.18800
C2054       C  0.02086766  0.66889589  0.20780398    -0.08700
C2055       C  0.05336988  0.68169547  0.13856756    -0.19000
C2056       C  0.06420164  0.68996852  0.15830949    -0.23800
C2057       C  0.07761525  0.69795395  0.13892968     0.26600
C2058       C  0.09184103  0.69981428  0.15881228    -0.20600
C2059       C  0.10479887  0.70681699  0.14078447    -0.10200
C2060       C  0.10371777  0.71231511  0.10258916    -0.10800
C2061       C  0.08930412  0.71089542  0.08319673    -0.03700
C2062       C  0.07642383  0.70383201  0.10109995    -0.18800
H2063       H  0.01691041  0.64159515  0.13649201     0.10300
H2064       H  0.03872142  0.65645957  0.10948819     0.10400
H2065       H  0.03786636  0.68744937  0.20801398     0.10000
H2066       H  0.01592594  0.67256152  0.23515382     0.11100
H2067       H  0.05470251  0.68039972  0.10755184     0.11200
H2068       H  0.06387640  0.69003945  0.18964120     0.13100
H2069       H  0.09302390  0.69555394  0.18812997     0.09600
H2070       H  0.11567777  0.70783260  0.15666211     0.11700
H2071       H  0.08797177  0.71514866  0.05392068     0.08300
H2072       H  0.06551564  0.70312285  0.08529421     0.11100
C2073       C  0.15509094  0.76550284  0.93561713    -0.03500
C2074       C  0.16954661  0.76195706  0.91834339    -0.06100
C2075       C  0.17254246  0.76638747  0.88013884    -0.21200
C2076       C  0.16133150  0.77479409  0.85889482     0.24500
C2077       C  0.14706764  0.77880745  0.87669810    -0.18800
C2078       C  0.14395288  0.77410766  0.91458514    -0.08700
C2079       C  0.16413391  0.77783547  0.81727291    -0.19000
C2080       C  0.15767569  0.78996100  0.79812943    -0.23800
C2081       C  0.15886017  0.79174812  0.75562746     0.26600
C2082       C  0.15851860  0.80681968  0.73937050    -0.20600
C2083       C  0.15851061  0.80878067  0.69927323    -0.10200
C2084       C  0.15848365  0.79566615  0.67463280    -0.10800
C2085       C  0.15883559  0.78056891  0.69094941    -0.03700
C2086       C  0.15908460  0.77862246  0.73101083    -0.18800
H2087       H  0.17827338  0.75521875  0.93384689     0.10300
H2088       H  0.18354359  0.76302370  0.86691105     0.10400
H2089       H  0.13800332  0.78493811  0.86091070     0.10000
H2090       H  0.13270929  0.77698469  0.92725763     0.11100
H2091       H  0.17174489  0.76975001  0.80189779     0.11200
H2092       H  0.15136886  0.79895146  0.81402235     0.13100
H2093       H  0.15816079  0.81709544  0.75776413     0.09600
H2094       H  0.15812751  0.82056265  0.68758263     0.11700
H2095       H  0.15874572  0.77023409  0.67275027     0.08300
H2096       H  0.15889652  0.76683004  0.74261949     0.11100
C2097       C  0.15910137  0.74626294  0.17408694    -0.03500
C2098       C  0.16012083  0.73318533  0.19870347    -0.06100
C2099       C  0.16087575  0.73517918  0.23872870    -0.21200
C2100       C  0.16098031  0.75026108  0.25494067     0.24500
C2101       C  0.16028318  0.76337291  0.23032645    -0.18800
C2102       C  0.15928922  0.76138250  0.19032255    -0.08700
C2103       C  0.16035308  0.75195709  0.29753394    -0.19000
C2104       C  0.16634935  0.76438946  0.31641832    -0.23800
C2105       C  0.16379361  0.76707881  0.35829518     0.26600
C2106       C  0.17481487  0.77577277  0.37948871    -0.20600
C2107       C  0.17191419  0.77976495  0.41807356    -0.10200
C2108       C  0.15773018  0.77548086  0.43571520    -0.10800
C2109       C  0.14681634  0.76659207  0.41470178    -0.03700
C2110       C  0.14984129  0.76234193  0.37649673    -0.18800
H2111       H  0.15991849  0.72138417  0.18710321     0.10300
H2112       H  0.16122929  0.72490610  0.25713449     0.10400
H2113       H  0.15990620  0.77515784  0.24194695     0.10000
H2114       H  0.15847256  0.77168798  0.17213347     0.11100
H2115       H  0.15477069  0.74260131  0.31380891     0.11200
H2116       H  0.17329787  0.77295846  0.30072427     0.13100
H2117       H  0.18556305  0.77970348  0.36594318     0.09600
H2118       H  0.18042307  0.78679347  0.43353993     0.11700
H2119       H  0.13575683  0.76320716  0.42760863     0.08300
H2120       H  0.14089986  0.75599750  0.36078493     0.11100
C2121       C  0.44677275  0.87372482  0.86265115    -0.03500
C2122       C  0.43296384  0.87688758  0.88334815    -0.06100
C2123       C  0.42514819  0.86493327  0.90315258    -0.21200
C2124       C  0.43078868  0.84946336  0.90249859     0.24500
C2125       C  0.44491707  0.84635483  0.88280250    -0.18800
C2126       C  0.45280609  0.85837307  0.86310984    -0.08700
C2127       C  0.42142132  0.83709358  0.92246005    -0.19000
C2128       C  0.42264029  0.82159999  0.91502797    -0.07800
C2129       C  0.41232765  0.80940746  0.93265272     0.26600
C2130       C  0.41741208  0.79374246  0.93245950    -0.20600
C2131       C  0.40785586  0.78175389  0.94683500    -0.10200
C2132       C  0.39284139  0.78510136  0.96139086    -0.10800
C2133       C  0.38769601  0.80077222  0.96161249    -0.03700
C2134       C  0.39730926  0.81280056  0.94742202    -0.18800
H2135       H  0.42805082  0.88860274  0.88387268     0.10300
H2136       H  0.41441136  0.86773902  0.91835485     0.10400
H2137       H  0.44999479  0.83474046  0.88248736     0.10000
H2138       H  0.46347788  0.85557418  0.84764874     0.11100
H2139       H  0.41271830  0.84110716  0.94303184     0.11200
H2140       H  0.43140180  0.81748660  0.89475495     0.13100
H2141       H  0.42883465  0.79074414  0.92097445     0.09600
H2142       H  0.41217460  0.76980688  0.94606408     0.11700
H2143       H  0.37617566  0.80373991  0.97250102     0.08300
H2144       H  0.39269389  0.82461141  0.94711884     0.11100
C2145       C  0.35295170  0.76879359  0.60105796    -0.03500
C2146       C  0.36453535  0.75980904  0.61952295    -0.06100
C2147       C  0.36196445  0.75376050  0.65638939    -0.21200
C2148       C  0.34795007  0.75691072  0.67594712     0.24500
C2149       C  0.33611574  0.76548931  0.65711431    -0.18800
C2150       C  0.33856551  0.77128124  0.61975871    -0.08700
C2151       C  0.34639696  0.75160574  0.71644543    -0.19000
C2152       C  0.33939416  0.76044730  0.74355359    -0.23800
C2153       C  0.34065993  0.75688707  0.78529085     0.26600
C2154       C  0.34138718  0.76940952  0.81144948    -0.20600
C2155       C  0.34365914  0.76662252  0.85074325    -0.10200
C2156       C  0.34492940  0.75120196  0.86479774    -0.10800
C2157       C  0.34364195  0.73861284  0.83880046    -0.03700
C2158       C  0.34158477  0.74142047  0.79933728    -0.18800
H2159       H  0.37567154  0.75757716  0.60555884     0.10300
H2160       H  0.37119255  0.74709585  0.67026482     0.10400
H2161       H  0.32505375  0.76780493  0.67130582     0.10000
H2162       H  0.32944173  0.77812857  0.60603213     0.11100
H2163       H  0.35300918  0.74129337  0.72507308     0.11200
H2164       H  0.33427739  0.77164349  0.73538892     0.13100
H2165       H  0.34063228  0.78141516  0.80130186     0.09600
H2166       H  0.34447603  0.77656416  0.87011781     0.11700
H2167       H  0.34451379  0.72660889  0.84886048     0.08300
H2168       H  0.34070450  0.73150374  0.77994002     0.11100
C2169       C  0.35536726  0.77107137  0.10080428    -0.03500
C2170       C  0.36796361  0.77814443  0.12030127    -0.06100
C2171       C  0.36592356  0.78441866  0.15718423    -0.21200
C2172       C  0.35138267  0.78339217  0.17577194     0.24500
C2173       C  0.33863978  0.77664433  0.15607758    -0.18800
C2174       C  0.34059567  0.77064706  0.11872543    -0.08700
C2175       C  0.35009467  0.78894195  0.21617142    -0.19000
C2176       C  0.34208189  0.78085061  0.24300468    -0.23800
C2177       C  0.34336309  0.78433743  0.28479484     0.26600
C2178       C  0.34358618  0.77178322  0.31090102    -0.20600
C2179       C  0.34561956  0.77446909  0.35033089    -0.10200
C2180       C  0.34712360  0.78983682  0.36465511    -0.10800
C2181       C  0.34641004  0.80247912  0.33861859    -0.03700
C2182       C  0.34464576  0.79975585  0.29896674    -0.18800
H2183       H  0.37944772  0.77877280  0.10708308     0.10300
H2184       H  0.37587648  0.78962226  0.17178235     0.10400
H2185       H  0.32721888  0.77596157  0.16958446     0.10000
H2186       H  0.33067564  0.76532026  0.10428638     0.11100
H2187       H  0.35759303  0.79859135  0.22508825     0.11200
H2188       H  0.33602783  0.77015463  0.23463652     0.13100
H2189       H  0.34257934  0.75981363  0.30062560     0.09600
H2190       H  0.34601983  0.76447589  0.36962128     0.11700
H2191       H  0.34747115  0.81444780  0.34881554     0.08300
H2192       H  0.34422285  0.80968041  0.27948554     0.11100
C2193       C  0.30831612  0.73279252  0.00201269    -0.03500
C2194       C  0.30402421  0.72382918  0.03436975    -0.06100
C2195       C  0.28818079  0.72197396  0.04429041    -0.21200
C2196       C  0.27629427  0.72854559  0.02131593     0.24500
C2197       C  0.28060689  0.73721864  0.98842381    -0.18800
C2198       C  0.29644546  0.73946393  0.97917089    -0.08700
C2199       C  0.25961740  0.72726332  0.03384868    -0.19000
C2200       C  0.24749334  0.72630042  0.00892394    -0.23800
C2201       C  0.23075778  0.72630847  0.02144422     0.26600
C2202       C  0.21945467  0.71827128  0.99945300    -0.20600
C2203       C  0.20346782  0.71914335  0.00897839    -0.10200
C2204       C  0.19844480  0.72848632  0.04000456    -0.10800
C2205       C  0.20977438  0.73642062  0.06214379    -0.03700
C2206       C  0.22572993  0.73525001  0.05321858    -0.18800
H2207       H  0.31294100  0.71868626  0.05265935     0.10300
H2208       H  0.28518771  0.71540552  0.07003294     0.10400
H2209       H  0.27177460  0.74274106  0.97059237     0.10000
H2210       H  0.29943932  0.74644703  0.95409804     0.11100
H2211       H  0.25731013  0.72676454  0.06466631     0.11200
H2212       H  0.24988292  0.72523040  0.97823289     0.13100
H2213       H  0.22300125  0.71143221  0.97458564     0.09600
H2214       H  0.19499678  0.71305990  0.99115752     0.11700
H2215       H  0.20625191  0.74376868  0.08614662     0.08300
H2216       H  0.23404178  0.74188743  0.07025718     0.11100
C2217       C  0.51156220  0.65867975  0.32687742    -0.03500
C2218       C  0.50879761  0.67441175  0.33703431    -0.06100
C2219       C  0.52092329  0.68373308  0.35179243    -0.21200
C2220       C  0.53607373  0.67758570  0.35653619     0.24500
C2221       C  0.53877567  0.66178783  0.34658339    -0.18800
C2222       C  0.52670022  0.65251326  0.33174771    -0.08700
C2223       C  0.54853383  0.68768499  0.37368010    -0.19000
C2224       C  0.56396413  0.68491451  0.36873087    -0.23800
C2225       C  0.57678853  0.69393867  0.38764810     0.26600
C2226       C  0.59169085  0.68702554  0.38916008    -0.20600
C2227       C  0.60421575  0.69474797  0.40671610    -0.10200
C2228       C  0.60223350  0.70971288  0.42305650    -0.10800
C2229       C  0.58738013  0.71681924  0.42113091    -0.03700
C2230       C  0.57476189  0.70902297  0.40360744    -0.18800
H2231       H  0.49725646  0.67951232  0.33370162     0.10300
H2232       H  0.51845954  0.69579827  0.35954929     0.10400
H2233       H  0.55005616  0.65632810  0.35109886     0.10000
H2234       H  0.52919594  0.64039026  0.32464553     0.11100
H2235       H  0.54473735  0.69755973  0.39105113     0.11200
H2236       H  0.56758035  0.67518945  0.35061198     0.13100
H2237       H  0.59363987  0.67546757  0.37703312     0.09600
H2238       H  0.61547784  0.68890651  0.40761321     0.11700
H2239       H  0.58548349  0.72836035  0.43335657     0.08300
H2240       H  0.56358377  0.71495502  0.40232536     0.11100
C2241       C  0.44073140  0.66265854  0.36412642    -0.03500
C2242       C  0.43380595  0.65953406  0.40016004    -0.06100
C2243       C  0.42600443  0.67148622  0.42044665    -0.21200
C2244       C  0.42518851  0.68680246  0.40541487     0.24500
C2245       C  0.43217427  0.68986791  0.36945472    -0.18800
C2246       C  0.43985172  0.67799196  0.34922319    -0.08700
C2247       C  0.41618536  0.69915115  0.42630804    -0.19000
C2248       C  0.41927825  0.71460807  0.42236712    -0.23800
C2249       C  0.40961605  0.72737817  0.43950141     0.26600
C2250       C  0.41632489  0.74231945  0.44391511    -0.20600
C2251       C  0.40738741  0.75496947  0.45724545    -0.10200
C2252       C  0.39142803  0.75302115  0.46610098    -0.10800
C2253       C  0.38470071  0.73804576  0.46182547    -0.03700
C2254       C  0.39367477  0.72536176  0.44865477    -0.18800
H2255       H  0.43420367  0.64783835  0.41235007     0.10300
H2256       H  0.42055944  0.66876434  0.44789368     0.10400
H2257       H  0.43135350  0.70132564  0.35615901     0.10000
H2258       H  0.44495428  0.68084002  0.32146231     0.11100
H2259       H  0.40691660  0.69534581  0.44562043     0.11200
H2260       H  0.42953616  0.71820147  0.40605539     0.13100
H2261       H  0.42852958  0.74424860  0.43671986     0.09600
H2262       H  0.41295311  0.76633098  0.46015103     0.11700
H2263       H  0.37242417  0.73615201  0.46821261     0.08300
H2264       H  0.38795031  0.71415834  0.44459226     0.11100
C2265       C  0.42782843  0.63433573  0.21873910    -0.03500
C2266       C  0.43111412  0.63576241  0.17915065    -0.06100
C2267       C  0.41973885  0.64133936  0.15369084    -0.21200
C2268       C  0.40495283  0.64588745  0.16734728     0.24500
C2269       C  0.40123807  0.64333288  0.20645297    -0.18800
C2270       C  0.41259129  0.63753029  0.23192544    -0.08700
C2271       C  0.39434795  0.65439170  0.14058998    -0.19000
C2272       C  0.38477121  0.66599771  0.15248903    -0.23800
C2273       C  0.37781694  0.67755761  0.12535987     0.26600
C2274       C  0.37423299  0.67379340  0.08681405    -0.20600
C2275       C  0.36996584  0.68559000  0.06075705    -0.10200
C2276       C  0.36925748  0.70134679  0.07270728    -0.10800
C2277       C  0.37173891  0.70489127  0.11184621    -0.03700
C2278       C  0.37585773  0.69308676  0.13792427    -0.18800
H2279       H  0.44272950  0.63325231  0.16814014     0.10300
H2280       H  0.42283494  0.64301739  0.12363315     0.10400
H2281       H  0.38977023  0.64627170  0.21764706     0.10000
H2282       H  0.40973855  0.63649441  0.26228866     0.11100
H2283       H  0.39637078  0.65278323  0.10989484     0.11200
H2284       H  0.38397481  0.66863679  0.18309480     0.13100
H2285       H  0.37510643  0.66184208  0.07647700     0.09600
H2286       H  0.36793972  0.68245683  0.03087287     0.11700
H2287       H  0.37108232  0.71688647  0.12206063     0.08300
H2288       H  0.37835947  0.69625811  0.16757760     0.11100
C2289       C  0.44268362  0.36986003  0.17159424    -0.03500
C2290       C  0.43222595  0.37280267  0.14110963    -0.06100
C2291       C  0.42308626  0.36066343  0.12581664    -0.21200
C2292       C  0.42448106  0.34530683  0.14004212     0.24500
C2293       C  0.43525121  0.34228327  0.16984744    -0.18800
C2294       C  0.44420540  0.35444501  0.18552089    -0.08700
C2295       C  0.41394633  0.33286782  0.12497039    -0.19000
C2296       C  0.41819413  0.31767872  0.12332022    -0.23800
C2297       C  0.40766556  0.30509632  0.10913662     0.26600
C2298       C  0.41425019  0.29205740  0.09055248    -0.20600
C2299       C  0.40478798  0.27968575  0.07803813    -0.10200
C2300       C  0.38854703  0.27991997  0.08469920    -0.10800
C2301       C  0.38193761  0.29292827  0.10365313    -0.03700
C2302       C  0.39139327  0.30545405  0.11557725    -0.18800
H2303       H  0.43065431  0.38459528  0.13010759     0.10300
H2304       H  0.41478892  0.36329491  0.10306486     0.10400
H2305       H  0.43635276  0.33066180  0.18215558     0.10000
H2306       H  0.45207893  0.35184113  0.20918236     0.11100
H2307       H  0.40262073  0.33641192  0.11363501     0.11200
H2308       H  0.43009044  0.31437776  0.13092317     0.13100
H2309       H  0.42676853  0.29147477  0.08556954     0.09600
H2310       H  0.41023651  0.26980794  0.06365318     0.11700
H2311       H  0.36945839  0.29343669  0.10919258     0.08300
H2312       H  0.38602036  0.31519439  0.13065248     0.11100
C2313       C  0.36525618  0.34431551  0.47337134    -0.03500
C2314       C  0.36630673  0.35976272  0.48731189    -0.06100
C2315       C  0.37180478  0.37177308  0.46341962    -0.21200
C2316       C  0.37610012  0.36860929  0.42512223     0.24500
C2317       C  0.37383785  0.35339030  0.41034460    -0.18800
C2318       C  0.36845517  0.34138207  0.43426425    -0.08700
C2319       C  0.38528957  0.38049598  0.40366113    -0.19000
C2320       C  0.38702188  0.38024234  0.36513319    -0.23800
C2321       C  0.39972531  0.38883172  0.34517856     0.26600
C2322       C  0.39790147  0.39271021  0.30614747    -0.20600
C2323       C  0.41053053  0.39855803  0.28493335    -0.10200
C2324       C  0.42532652  0.40030729  0.30224085    -0.10800
C2325       C  0.42701149  0.39696495  0.34170907    -0.03700
C2326       C  0.41433579  0.39129701  0.36301313    -0.18800
H2327       H  0.36395522  0.36237231  0.51735672     0.10300
H2328       H  0.37352204  0.38337841  0.47548068     0.10400
H2329       H  0.37732191  0.35036326  0.38126509     0.10000
H2330       H  0.36773398  0.32959124  0.42269708     0.11100
H2331       H  0.39179413  0.38903797  0.42055660     0.11200
H2332       H  0.37948428  0.37284376  0.34763074     0.13100
H2333       H  0.38681790  0.39070974  0.29172590     0.09600
H2334       H  0.40890313  0.40088718  0.25446543     0.11700
H2335       H  0.43829690  0.39807151  0.35574837     0.08300
H2336       H  0.41629577  0.38797414  0.39277128     0.11100
C2337       C  0.45904942  0.46337957  0.23845359    -0.03500
C2338       C  0.44388234  0.46981661  0.23864971    -0.06100
C2339       C  0.44168542  0.48590803  0.24558640    -0.21200
C2340       C  0.45459349  0.49577671  0.25236164     0.24500
C2341       C  0.46964432  0.48908823  0.25408397    -0.18800
C2342       C  0.47183769  0.47315700  0.24688300    -0.08700
C2343       C  0.45224509  0.51292604  0.25836100    -0.19000
C2344       C  0.46334633  0.52342877  0.24834617    -0.23800
C2345       C  0.46298633  0.54047509  0.25740405     0.26600
C2346       C  0.47731209  0.54852181  0.25722030    -0.20600
C2347       C  0.47803795  0.56438335  0.26670356    -0.10200
C2348       C  0.46439278  0.57276534  0.27613429    -0.10800
C2349       C  0.44990006  0.56491474  0.27520498    -0.03700
C2350       C  0.44918986  0.54884966  0.26611407    -0.18800
H2351       H  0.43379727  0.46250763  0.23259280     0.10300
H2352       H  0.42994449  0.49071684  0.24484407     0.10400
H2353       H  0.47980687  0.49609830  0.26125139     0.10000
H2354       H  0.48362495  0.46846752  0.24801133     0.11100
H2355       H  0.44135885  0.51679529  0.27141472     0.11200
H2356       H  0.47387541  0.51920402  0.23413190     0.13100
H2357       H  0.48810745  0.54242288  0.25040520     0.09600
H2358       H  0.48937969  0.57008869  0.26678642     0.11700
H2359       H  0.43919246  0.57109996  0.28226066     0.08300
H2360       H  0.43788567  0.54312515  0.26576380     0.11100
C2361       C  0.61677216  0.75367612  0.95086892    -0.03500
C2362       C  0.60460555  0.74833477  0.97496406    -0.06100
C2363       C  0.59563194  0.73520843  0.96476413    -0.21200
C2364       C  0.59835699  0.72727962  0.92989920     0.24500
C2365       C  0.61063093  0.73251640  0.90589652    -0.18800
C2366       C  0.61974921  0.74553527  0.91633866    -0.08700
C2367       C  0.58841153  0.71346484  0.91976035    -0.19000
C2368       C  0.58508550  0.70954999  0.88297222    -0.23800
C2369       C  0.57487617  0.69615973  0.87122660     0.26600
C2370       C  0.56820065  0.69657131  0.83428721    -0.20600
C2371       C  0.55946034  0.68394201  0.82037712    -0.10200
C2372       C  0.55728856  0.67033576  0.84280102    -0.10800
C2373       C  0.56369420  0.66995857  0.88021777    -0.03700
C2374       C  0.57237663  0.68276968  0.89438800    -0.18800
H2375       H  0.60207316  0.75424543  0.00192722     0.10300
H2376       H  0.58637085  0.73136085  0.98395808     0.10400
H2377       H  0.61338928  0.72644360  0.87932121     0.10000
H2378       H  0.62908012  0.74928506  0.89724627     0.11100
H2379       H  0.58293879  0.70703094  0.94321427     0.11200
H2380       H  0.58946732  0.71700814  0.85994092     0.13100
H2381       H  0.56992240  0.70667859  0.81577334     0.09600
H2382       H  0.55475357  0.68471783  0.79141519     0.11700
H2383       H  0.56226965  0.65965973  0.89819901     0.08300
H2384       H  0.57754458  0.68189765  0.92280653     0.11100
C2385       C  0.56983819  0.63773271  0.70718014    -0.03500
C2386       C  0.56630760  0.64001729  0.66795975    -0.06100
C2387       C  0.57805109  0.64432639  0.64184590    -0.21200
C2388       C  0.59350507  0.64670648  0.65443154     0.24500
C2389       C  0.59723544  0.64351765  0.69320125    -0.18800
C2390       C  0.58551796  0.63905046  0.71926500    -0.08700
C2391       C  0.60508378  0.65340566  0.62685706    -0.19000
C2392       C  0.61685711  0.66293054  0.63804710    -0.23800
C2393       C  0.62565899  0.67292667  0.61037698     0.26600
C2394       C  0.62999416  0.68809384  0.62203348    -0.20600
C2395       C  0.63581961  0.69885870  0.59520647    -0.10200
C2396       C  0.63791564  0.69447009  0.55655810    -0.10800
C2397       C  0.63481541  0.67895848  0.54539291    -0.03700
C2398       C  0.62868133  0.66823542  0.57210614    -0.18800
H2399       H  0.55437651  0.63894421  0.65764888     0.10300
H2400       H  0.57489570  0.64652936  0.61204641     0.10400
H2401       H  0.60911620  0.64473425  0.70366364     0.10000
H2402       H  0.58865139  0.63725267  0.74923135     0.11100
H2403       H  0.60248956  0.65228059  0.59629177     0.11200
H2404       H  0.61847798  0.66535946  0.66854594     0.13100
H2405       H  0.62785135  0.69196814  0.65135242     0.09600
H2406       H  0.63788548  0.71087113  0.60413069     0.11700
H2407       H  0.63608335  0.67547136  0.51548044     0.08300
H2408       H  0.62578551  0.65650709  0.56246004     0.11100
C2409       C  0.48375816  0.65670832  0.81549107    -0.03500
C2410       C  0.46941017  0.64890996  0.82128421    -0.06100
C2411       C  0.45606551  0.65714123  0.83312240    -0.21200
C2412       C  0.45668008  0.67335869  0.83994201     0.24500
C2413       C  0.47097369  0.68126737  0.83371989    -0.18800
C2414       C  0.48436299  0.67301541  0.82169971    -0.08700
C2415       C  0.44216918  0.68149644  0.85340463    -0.19000
C2416       C  0.44237209  0.69454179  0.87543020    -0.23800
C2417       C  0.42810389  0.70167458  0.89317734     0.26600
C2418       C  0.42990623  0.71039093  0.92722228    -0.20600
C2419       C  0.41695178  0.71697989  0.94580821    -0.10200
C2420       C  0.40177332  0.71525824  0.93057445    -0.10800
C2421       C  0.39993912  0.70693221  0.89577516    -0.03700
C2422       C  0.41296392  0.70014647  0.87730165    -0.18800
H2423       H  0.46846647  0.63637079  0.81675818     0.10300
H2424       H  0.44523790  0.65074434  0.83750456     0.10400
H2425       H  0.47182780  0.69383374  0.83762659     0.10000
H2426       H  0.49516712  0.67941609  0.81711589     0.11100
H2427       H  0.43105892  0.67571741  0.84786097     0.11200
H2428       H  0.45359728  0.69945349  0.88386458     0.13100
H2429       H  0.44140153  0.71189033  0.93995824     0.09600
H2430       H  0.41886273  0.72344129  0.97231257     0.11700
H2431       H  0.38843179  0.70549927  0.88310095     0.08300
H2432       H  0.41114838  0.69386370  0.85053867     0.11100
C2433       C  0.52144572  0.61477077  0.91772893    -0.03500
C2434       C  0.53361809  0.61003279  0.94248974    -0.06100
C2435       C  0.53118166  0.60926053  0.98242603    -0.21200
C2436       C  0.51663778  0.61341134  0.99831836     0.24500
C2437       C  0.50435548  0.61770439  0.97341658    -0.18800
C2438       C  0.50675670  0.61842938  0.93365715    -0.08700
C2439       C  0.51445253  0.61313582  0.04082145    -0.19000
C2440       C  0.50458467  0.62310258  0.05862569    -0.23800
C2441       C  0.50175375  0.62348766  0.10083460     0.26600
C2442       C  0.49527131  0.63716897  0.11659153    -0.20600
C2443       C  0.49162235  0.63800729  0.15571440    -0.10200
C2444       C  0.49419634  0.62508139  0.18006987    -0.10800
C2445       C  0.50065243  0.61130354  0.16444354    -0.03700
C2446       C  0.50445290  0.61050892  0.12512647    -0.18800
H2447       H  0.54504518  0.60704640  0.93106401     0.10300
H2448       H  0.54076220  0.60573911  0.00101099     0.10400
H2449       H  0.49281359  0.62041273  0.98449660     0.10000
H2450       H  0.49708637  0.62198763  0.91541015     0.11100
H2451       H  0.52169931  0.60522372  0.05766233     0.11200
H2452       H  0.49864041  0.63198369  0.04155388     0.13100
H2453       H  0.49293085  0.64726820  0.09847261     0.09600
H2454       H  0.48649684  0.64873833  0.16673012     0.11700
H2455       H  0.50264152  0.60112283  0.18250868     0.08300
H2456       H  0.50906361  0.59962215  0.11379863     0.11100
C2457       C  0.50566931  0.61932070  0.67697223    -0.03500
C2458       C  0.50489605  0.63191681  0.65085163    -0.06100
C2459       C  0.50297704  0.62923013  0.61157614    -0.21200
C2460       C  0.50147876  0.61393860  0.59738067     0.24500
C2461       C  0.50176775  0.60123944  0.62333708    -0.18800
C2462       C  0.50393326  0.60392390  0.66294259    -0.08700
C2463       C  0.50033904  0.61192945  0.55514053    -0.19000
C2464       C  0.49203966  0.60052377  0.53789043    -0.23800
C2465       C  0.48929794  0.60099267  0.49570087     0.26600
C2466       C  0.47438939  0.59744085  0.48116559    -0.20600
C2467       C  0.47089541  0.60011657  0.44225647    -0.10200
C2468       C  0.48234878  0.60622876  0.41722008    -0.10800
C2469       C  0.49755748  0.60882082  0.43140613    -0.03700
C2470       C  0.50101119  0.60618946  0.47019725    -0.18800
H2471       H  0.50623043  0.64392460  0.66055432     0.10300
H2472       H  0.50276797  0.63918154  0.59209376     0.10400
H2473       H  0.50086399  0.58928915  0.61297971     0.10000
H2474       H  0.50460439  0.59398983  0.68237347     0.11100
H2475       H  0.50524784  0.62127803  0.53752236     0.11200
H2476       H  0.48560919  0.59206892  0.55521403     0.13100
H2477       H  0.46523114  0.59332071  0.50031391     0.09600
H2478       H  0.45912284  0.59783032  0.43207319     0.11700
H2479       H  0.50673505  0.61325331  0.41275030     0.08300
H2480       H  0.51275652  0.60858501  0.48043091     0.11100
C2481       C  0.39800081  0.33111721  0.61113537    -0.03500
C2482       C  0.39518441  0.34117043  0.64251817    -0.06100
C2483       C  0.40754763  0.34949535  0.65952921    -0.21200
C2484       C  0.42297754  0.34762379  0.64616782     0.24500
C2485       C  0.42583118  0.33721198  0.61547781    -0.18800
C2486       C  0.41347435  0.32910520  0.59811116    -0.08700
C2487       C  0.43568598  0.35746542  0.66272593    -0.19000
C2488       C  0.45074241  0.35276502  0.66420838    -0.23800
C2489       C  0.46361827  0.36294258  0.67849857     0.26600
C2490       C  0.47664008  0.35601999  0.69639455    -0.20600
C2491       C  0.48924436  0.36522968  0.70881821    -0.10200
C2492       C  0.48924625  0.38154375  0.70273819    -0.10800
C2493       C  0.47627117  0.38845413  0.68438446    -0.03700
C2494       C  0.46355142  0.37927079  0.67256030    -0.18800
H2495       H  0.38337542  0.34300458  0.65303665     0.10300
H2496       H  0.40504389  0.35753403  0.68295719     0.10400
H2497       H  0.43750444  0.33575050  0.60381342     0.10000
H2498       H  0.41601240  0.32141621  0.57400462     0.11100
H2499       H  0.43246420  0.36878523  0.67477222     0.11200
H2500       H  0.45373171  0.34085224  0.65583179     0.13100
H2501       H  0.47703384  0.34344267  0.70087367     0.09600
H2502       H  0.49911129  0.35953806  0.72259798     0.11700
H2503       H  0.47595143  0.40097892  0.67910908     0.08300
H2504       H  0.45387904  0.38491324  0.65788555     0.11100
C2505       C  0.49255250  0.42072263  0.34684071    -0.03500
C2506       C  0.50150642  0.43429664  0.35341748    -0.06100
C2507       C  0.50701416  0.43773679  0.39043907    -0.21200
C2508       C  0.50325351  0.42793990  0.42158430     0.24500
C2509       C  0.49416121  0.41444133  0.41509245    -0.18800
C2510       C  0.48895384  0.41081133  0.37797297    -0.08700
C2511       C  0.50977030  0.43137228  0.46015102    -0.19000
C2512       C  0.50171849  0.42848847  0.49271333    -0.23800
C2513       C  0.50879907  0.42988419  0.53150798     0.26600
C2514       C  0.49919712  0.43335003  0.56323176    -0.20600
C2515       C  0.50526875  0.43299548  0.60069352    -0.10200
C2516       C  0.52099421  0.42883212  0.60705186    -0.10800
C2517       C  0.53068213  0.42573690  0.57515844    -0.03700
C2518       C  0.52466761  0.42629793  0.53775178    -0.18800
H2519       H  0.50454154  0.44205339  0.32979689     0.10300
H2520       H  0.51417453  0.44808229  0.39482678     0.10400
H2521       H  0.49144145  0.40646248  0.43848512     0.10000
H2522       H  0.48209082  0.40026368  0.37361443     0.11100
H2523       H  0.52139660  0.43652343  0.46168055     0.11200
H2524       H  0.48953411  0.42485179  0.49091110     0.13100
H2525       H  0.48690224  0.43600837  0.55905033     0.09600
H2526       H  0.49748805  0.43531383  0.62473132     0.11700
H2527       H  0.54282002  0.42240993  0.57915648     0.08300
H2528       H  0.53227982  0.42316546  0.51397240     0.11100
C2529       C  0.51567903  0.40926453  0.84799619    -0.03500
C2530       C  0.52553651  0.40298530  0.87655634    -0.06100
C2531       C  0.52179304  0.40458259  0.91556800    -0.21200
C2532       C  0.50813849  0.41248819  0.92708614     0.24500
C2533       C  0.49830076  0.41886954  0.89840035    -0.18800
C2534       C  0.50206252  0.41726555  0.85933710    -0.08700
C2535       C  0.50471772  0.41351133  0.96915007    -0.19000
C2536       C  0.49238110  0.42113571  0.98458071    -0.23800
C2537       C  0.48913994  0.42156375  0.02666042     0.26600
C2538       C  0.47374786  0.42440438  0.03910377    -0.20600
C2539       C  0.47012911  0.42474285  0.07842688    -0.10200
C2540       C  0.48189038  0.42232857  0.10612556    -0.10800
C2541       C  0.49736277  0.41980125  0.09372023    -0.03700
C2542       C  0.50098507  0.41951582  0.05445092    -0.18800
H2543       H  0.53618503  0.39682955  0.86881018     0.10300
H2544       H  0.52962625  0.39957405  0.93687269     0.10400
H2545       H  0.48764124  0.42503940  0.90542587     0.10000
H2546       H  0.49425970  0.42227539  0.83799338     0.11100
H2547       H  0.51267749  0.40729166  0.98816863     0.11200
H2548       H  0.48388724  0.42685860  0.96617266     0.13100
H2549       H  0.46443859  0.42615108  0.01828951     0.09600
H2550       H  0.45809271  0.42668649  0.08709353     0.11700
H2551       H  0.50671607  0.41802145  0.11438456     0.08300
H2552       H  0.51309463  0.41789280  0.04621233     0.11100
C2553       C  0.53973255  0.46412031  0.74759238    -0.03500
C2554       C  0.53244521  0.47017842  0.78076353    -0.06100
C2555       C  0.53294946  0.48624642  0.78897887    -0.21200
C2556       C  0.54066824  0.49682908  0.76428990     0.24500
C2557       C  0.54822605  0.49076759  0.73128447    -0.18800
C2558       C  0.54781236  0.47458446  0.72318365    -0.08700
C2559       C  0.53963467  0.51398297  0.77358056    -0.19000
C2560       C  0.54730829  0.52572497  0.75521673    -0.23800
C2561       C  0.54483498  0.54270417  0.76493572     0.26600
C2562       C  0.55663139  0.55381153  0.75698711    -0.20600
C2563       C  0.55444550  0.56981813  0.76562863    -0.10200
C2564       C  0.54030723  0.57509786  0.78203582    -0.10800
C2565       C  0.52845432  0.56398484  0.78927177    -0.03700
C2566       C  0.53063491  0.54809853  0.78074570    -0.18800
H2567       H  0.52613033  0.46250289  0.80024685     0.10300
H2568       H  0.52699537  0.49046554  0.81457843     0.10400
H2569       H  0.55414378  0.49841776  0.71111884     0.10000
H2570       H  0.55342532  0.47032792  0.69717286     0.11100
H2571       H  0.53205517  0.51703893  0.79757716     0.11200
H2572       H  0.55586765  0.52298319  0.73310541     0.13100
H2573       H  0.56761258  0.55007606  0.74429158     0.09600
H2574       H  0.56376921  0.57804619  0.75930184     0.11700
H2575       H  0.51731491  0.56756777  0.80137255     0.08300
H2576       H  0.52096655  0.54016465  0.78589245     0.11100
C2577       C  0.62027639  0.25527117  0.08949591    -0.03500
C2578       C  0.62736749  0.24606273  0.11831574    -0.06100
C2579       C  0.61989697  0.23263159  0.13254572    -0.21200
C2580       C  0.60507757  0.22819145  0.11878452     0.24500
C2581       C  0.59800087  0.23733046  0.08977793    -0.18800
C2582       C  0.60552233  0.25071116  0.07532916    -0.08700
C2583       C  0.59766568  0.21366502  0.13423416    -0.19000
C2584       C  0.58204410  0.21126897  0.13490159    -0.23800
C2585       C  0.57467373  0.19677307  0.15064725     0.26600
C2586       C  0.55932541  0.19752335  0.16515552    -0.20600
C2587       C  0.55203373  0.18414625  0.18031273    -0.10200
C2588       C  0.55988577  0.16963938  0.18087305    -0.10800
C2589       C  0.57510784  0.16880917  0.16539837    -0.03700
C2590       C  0.58241811  0.18219760  0.15044098    -0.18800
H2591       H  0.63875378  0.24918004  0.12978147     0.10300
H2592       H  0.62568108  0.22573030  0.15460405     0.10400
H2593       H  0.58680840  0.23402821  0.07759166     0.10000
H2594       H  0.59978593  0.25746279  0.05294148     0.11100
H2595       H  0.60536634  0.20501327  0.14724224     0.11200
H2596       H  0.57425659  0.22057667  0.12544097     0.13100
H2597       H  0.55303343  0.20856438  0.16529566     0.09600
H2598       H  0.54030475  0.18521298  0.19195632     0.11700
H2599       H  0.58146736  0.15781328  0.16514007     0.08300
H2600       H  0.59404945  0.18102734  0.13835707     0.11100
C2601       C  0.58010948  0.40249698  0.79074285    -0.03500
C2602       C  0.58211441  0.41224678  0.82297010    -0.06100
C2603       C  0.59236837  0.40779737  0.85266167    -0.21200
C2604       C  0.60098153  0.39375549  0.85008195     0.24500
C2605       C  0.59977046  0.38469074  0.81626845    -0.18800
C2606       C  0.58936491  0.38898200  0.78710059    -0.08700
C2607       C  0.60887978  0.38744594  0.88505462    -0.19000
C2608       C  0.62016570  0.37639167  0.88364519    -0.23800
C2609       C  0.62449800  0.36653731  0.91737827     0.26600
C2610       C  0.63930631  0.35933692  0.91856919    -0.20600
C2611       C  0.64289042  0.34834253  0.94735414    -0.10200
C2612       C  0.63151226  0.34400809  0.97457901    -0.10800
C2613       C  0.61679528  0.35132970  0.97374787    -0.03700
C2614       C  0.61335006  0.36257529  0.94568595    -0.18800
H2615       H  0.57489696  0.42260037  0.82656282     0.10300
H2616       H  0.59296299  0.41489768  0.87855756     0.10400
H2617       H  0.60585641  0.37361912  0.81342245     0.10000
H2618       H  0.58788303  0.38124183  0.76254437     0.11100
H2619       H  0.60434179  0.39114567  0.91290617     0.11200
H2620       H  0.62582407  0.37373765  0.85633951     0.13100
H2621       H  0.64799206  0.36199601  0.89671902     0.09600
H2622       H  0.65428400  0.34274532  0.94737357     0.11700
H2623       H  0.60785893  0.34816906  0.99457207     0.08300
H2624       H  0.60167168  0.36751098  0.94507313     0.11100
C2625       C  0.51500369  0.38170935  0.21776174    -0.03500
C2626       C  0.52985174  0.38872354  0.22105126    -0.06100
C2627       C  0.54334381  0.38045671  0.21098214    -0.21200
C2628       C  0.54234841  0.36506565  0.19693727     0.24500
C2629       C  0.52751886  0.35786632  0.19438941    -0.18800
C2630       C  0.51397597  0.36613985  0.20468253    -0.08700
C2631       C  0.55707532  0.35711665  0.18518373    -0.19000
C2632       C  0.55763610  0.34535931  0.15927555    -0.23800
C2633       C  0.57249151  0.33850000  0.14458912     0.26600
C2634       C  0.57205912  0.32355897  0.12764557    -0.20600
C2635       C  0.58551275  0.31704468  0.11120108    -0.10200
C2636       C  0.59968945  0.32544624  0.11087996    -0.10800
C2637       C  0.60019408  0.34035231  0.12812064    -0.03700
C2638       C  0.58675034  0.34683872  0.14476822    -0.18800
H2639       H  0.53107536  0.40067302  0.23126358     0.10300
H2640       H  0.55460840  0.38623595  0.21349600     0.10400
H2641       H  0.52628412  0.34585044  0.18485132     0.10000
H2642       H  0.50270505  0.36039150  0.20212763     0.11100
H2643       H  0.56788599  0.36173628  0.19708492     0.11200
H2644       H  0.54683812  0.34066976  0.14746849     0.13100
H2645       H  0.56121395  0.31695596  0.12677398     0.09600
H2646       H  0.58469695  0.30557616  0.09788091     0.11700
H2647       H  0.61091489  0.34715562  0.12807063     0.08300
H2648       H  0.58752503  0.35858625  0.15637550     0.11100
C2649       C  0.80308518  0.31015382  0.97155568    -0.03500
C2650       C  0.79216369  0.30045979  0.95279794    -0.06100
C2651       C  0.77612828  0.30289450  0.95719364    -0.21200
C2652       C  0.77042238  0.31488875  0.98104392     0.24500
C2653       C  0.78125500  0.32478360  0.99981526    -0.18800
C2654       C  0.79748836  0.32249928  0.99481149    -0.08700
C2655       C  0.75309609  0.31628385  0.98490811    -0.19000
C2656       C  0.74548009  0.32214083  0.01586498    -0.23800
C2657       C  0.72821745  0.32001166  0.02134156     0.26600
C2658       C  0.71975206  0.33033073  0.04521796    -0.20600
C2659       C  0.70375665  0.32778521  0.05278485    -0.10200
C2660       C  0.69595300  0.31473063  0.03693932    -0.10800
C2661       C  0.70442335  0.30454490  0.01279666    -0.03700
C2662       C  0.72028829  0.30706574  0.00530812    -0.18800
H2663       H  0.79601250  0.29092105  0.93442993     0.10300
H2664       H  0.76809970  0.29512047  0.94230312     0.10400
H2665       H  0.77726026  0.33431726  0.01794013     0.10000
H2666       H  0.80562977  0.33017993  0.00956545     0.11100
H2667       H  0.74627240  0.31097930  0.96192481     0.11200
H2668       H  0.75202574  0.32790723  0.03867126     0.13100
H2669       H  0.72556933  0.34028650  0.05835515     0.09600
H2670       H  0.69760590  0.33582177  0.07166998     0.11700
H2671       H  0.69888383  0.29429728  0.00030269     0.08300
H2672       H  0.72637765  0.29841834  0.98808917     0.11100
C2673       C  0.94828389  0.17064755  0.84997332    -0.03500
C2674       C  0.95610095  0.18509908  0.85348038    -0.06100
C2675       C  0.94857792  0.19802895  0.87021393    -0.21200
C2676       C  0.93307349  0.19684663  0.88355436     0.24500
C2677       C  0.92549792  0.18219131  0.88142576    -0.18800
C2678       C  0.93299408  0.16930053  0.86469638    -0.08700
C2679       C  0.92528666  0.21106533  0.89970797    -0.19000
C2680       C  0.90958551  0.21278258  0.90156446    -0.23800
C2681       C  0.90148654  0.22691208  0.91711026     0.26600
C2682       C  0.88572952  0.22547617  0.92818638    -0.20600
C2683       C  0.87738669  0.23843119  0.94190590    -0.10200
C2684       C  0.88457510  0.25322702  0.94466455    -0.10800
C2685       C  0.90034282  0.25473433  0.93346763    -0.03700
C2686       C  0.90871735  0.24173654  0.91975285    -0.18800
H2687       H  0.96791457  0.18651475  0.84261026     0.10300
H2688       H  0.95478050  0.20909943  0.87196733     0.10400
H2689       H  0.91382406  0.18050597  0.89278521     0.10000
H2690       H  0.92669642  0.15828838  0.86290831     0.11100
H2691       H  0.93284125  0.22048508  0.90951580     0.11200
H2692       H  0.90208704  0.20338935  0.89136076     0.13100
H2693       H  0.87982238  0.21424869  0.92622622     0.09600
H2694       H  0.86524829  0.23684947  0.95015612     0.11700
H2695       H  0.90617374  0.26600841  0.93488179     0.08300
H2696       H  0.92068247  0.24350197  0.91048979     0.11100
C2697       C  0.86608483  0.33899567  0.05263244    -0.03500
C2698       C  0.86573874  0.33537886  0.09213493    -0.06100
C2699       C  0.87102547  0.34620623  0.11939593    -0.21200
C2700       C  0.87706049  0.36082207  0.10792360     0.24500
C2701       C  0.87648612  0.36487781  0.06850845    -0.18800
C2702       C  0.87095554  0.35406149  0.04114603    -0.08700
C2703       C  0.88509012  0.37046397  0.13786671    -0.19000
C2704       C  0.89508471  0.38240413  0.13075613    -0.23800
C2705       C  0.90630102  0.38790622  0.16075854     0.26600
C2706       C  0.91136572  0.40361910  0.16187686    -0.20600
C2707       C  0.92283059  0.40841929  0.18858873    -0.10200
C2708       C  0.92969574  0.39742434  0.21367569    -0.10800
C2709       C  0.92457101  0.38176996  0.21236481    -0.03700
C2710       C  0.91306423  0.37707965  0.18639114    -0.18800
H2711       H  0.86194226  0.32390935  0.10189773     0.10300
H2712       H  0.87118600  0.34276786  0.14950620     0.10400
H2713       H  0.88071514  0.37610747  0.05841903     0.10000
H2714       H  0.87134158  0.35716112  0.01084080     0.11100
H2715       H  0.88404653  0.36634157  0.16745021     0.11200
H2716       H  0.89608046  0.38745012  0.10214572     0.13100
H2717       H  0.90650759  0.41212861  0.14198267     0.09600
H2718       H  0.92664632  0.42053957  0.18885349     0.11700
H2719       H  0.92959903  0.37300627  0.23133544     0.08300
H2720       H  0.90990875  0.36477946  0.18552788     0.11100
C2721       C  0.89863194  0.32305962  0.91367596    -0.03500
C2722       C  0.91348340  0.32125922  0.93066368    -0.06100
C2723       C  0.92685377  0.32717278  0.91263387    -0.21200
C2724       C  0.92574209  0.33518310  0.87741109     0.24500
C2725       C  0.91092724  0.33667129  0.85978556    -0.18800
C2726       C  0.89750505  0.33067223  0.87781188    -0.08700
C2727       C  0.94029910  0.34191078  0.86056946    -0.19000
C2728       C  0.94032382  0.35425074  0.83633367    -0.23800
C2729       C  0.95478441  0.36250692  0.82358913     0.26600
C2730       C  0.95330994  0.37798187  0.81043442    -0.20600
C2731       C  0.96648001  0.38661681  0.79975963    -0.10200
C2732       C  0.98153675  0.37996184  0.80164303    -0.10800
C2733       C  0.98306313  0.36429364  0.81369864    -0.03700
C2734       C  0.96980628  0.35561087  0.82452763    -0.18800
H2735       H  0.91480387  0.31531773  0.95810679     0.10300
H2736       H  0.93810084  0.32574101  0.92669548     0.10400
H2737       H  0.90962052  0.34232802  0.83203445     0.10000
H2738       H  0.88624817  0.33209783  0.86382598     0.11100
H2739       H  0.95133852  0.33743640  0.87148672     0.11200
H2740       H  0.92924513  0.35952319  0.82811641     0.13100
H2741       H  0.94191240  0.38355680  0.80908650     0.09600
H2742       H  0.96482804  0.39861177  0.79026501     0.11700
H2743       H  0.99448842  0.35879409  0.81503353     0.08300
H2744       H  0.97141597  0.34354987  0.83334784     0.11100
C2745       C  0.65823294  0.29987772  0.18065240    -0.03500
C2746       C  0.65054757  0.30992974  0.20672151    -0.06100
C2747       C  0.65022636  0.30654673  0.24614768    -0.21200
C2748       C  0.65766705  0.29312230  0.26071331     0.24500
C2749       C  0.66578552  0.28326462  0.23489291    -0.18800
C2750       C  0.66607489  0.28663758  0.19526340    -0.08700
C2751       C  0.65541816  0.28919070  0.30220437    -0.19000
C2752       C  0.66459216  0.27926747  0.32236918    -0.23800
C2753       C  0.66099196  0.27458672  0.36281892     0.26600
C2754       C  0.67318917  0.26991870  0.38751073    -0.20600
C2755       C  0.66997784  0.26474723  0.42513391    -0.10200
C2756       C  0.65444850  0.26386480  0.43847422    -0.10800
C2757       C  0.64226894  0.26855083  0.41371946    -0.03700
C2758       C  0.64547825  0.27383787  0.37641009    -0.18800
H2759       H  0.64433791  0.32021398  0.19655588     0.10300
H2760       H  0.64381800  0.31429461  0.26527811     0.10400
H2761       H  0.67135135  0.27260149  0.24480121     0.10000
H2762       H  0.67196294  0.27857748  0.17593230     0.11100
H2763       H  0.64573542  0.29492289  0.31686424     0.11200
H2764       H  0.67517381  0.27460591  0.30933636     0.13100
H2765       H  0.68522304  0.27022759  0.37760199     0.09600
H2766       H  0.67959774  0.26110934  0.44343824     0.11700
H2767       H  0.63016616  0.26796465  0.42302506     0.08300
H2768       H  0.63571075  0.27684294  0.35793882     0.11100
C2769       C  0.65409701  0.24668327  0.67907059    -0.03500
C2770       C  0.65165319  0.23395922  0.70419749    -0.06100
C2771       C  0.65004115  0.23641796  0.74395333    -0.21200
C2772       C  0.65134665  0.25155409  0.75952024     0.24500
C2773       C  0.65410752  0.26427044  0.73455443    -0.18800
C2774       C  0.65529568  0.26187230  0.69465342    -0.08700
C2775       C  0.64873715  0.25396999  0.80144840    -0.19000
C2776       C  0.65727275  0.26412432  0.82247493    -0.23800
C2777       C  0.65410244  0.26720649  0.86392941     0.26600
C2778       C  0.66662835  0.27027192  0.88911980    -0.20600
C2779       C  0.66381900  0.27444008  0.92764754    -0.10200
C2780       C  0.64841245  0.27614862  0.94112139    -0.10800
C2781       C  0.63588082  0.27297032  0.91607353    -0.03700
C2782       C  0.63868498  0.26833748  0.87795846    -0.18800
H2783       H  0.65048463  0.22215448  0.69296517     0.10300
H2784       H  0.64775510  0.22647818  0.76262937     0.10400
H2785       H  0.65483150  0.27611343  0.74574891     0.10000
H2786       H  0.65707826  0.27190401  0.67595455     0.11100
H2787       H  0.63991036  0.24680338  0.81562308     0.11200
H2788       H  0.66713504  0.27010381  0.80913524     0.13100
H2789       H  0.67859408  0.26960404  0.87881464     0.09600
H2790       H  0.67363788  0.27704975  0.94638589     0.11700
H2791       H  0.62390236  0.27432748  0.92588490     0.08300
H2792       H  0.62879362  0.26634097  0.85902585     0.11100
C2793       C  0.57866827  0.13340372  0.30659815    -0.03500
C2794       C  0.59404218  0.13269572  0.29232934    -0.06100
C2795       C  0.60645673  0.13893569  0.31394116    -0.21200
C2796       C  0.60372621  0.14551978  0.35051049     0.24500
C2797       C  0.58845922  0.14514442  0.36579997    -0.18800
C2798       C  0.57604072  0.13930476  0.34383936    -0.08700
C2799       C  0.61618512  0.15489389  0.36956990    -0.19000
C2800       C  0.61715977  0.15637338  0.40815040    -0.23800
C2801       C  0.62644666  0.16884963  0.42740059     0.26600
C2802       C  0.63203490  0.16630442  0.46493045    -0.20600
C2803       C  0.63799918  0.17875322  0.48677853    -0.10200
C2804       C  0.63814375  0.19411053  0.47181528    -0.10800
C2805       C  0.63341568  0.19647406  0.43336509    -0.03700
C2806       C  0.62766736  0.18396539  0.41132755    -0.18800
H2807       H  0.59626099  0.12850561  0.26331471     0.10300
H2808       H  0.61808011  0.13926964  0.30140156     0.10400
H2809       H  0.58586792  0.15046506  0.39345275     0.10000
H2810       H  0.56422210  0.14018950  0.35507568     0.11100
H2811       H  0.62413677  0.16150053  0.35123568     0.11200
H2812       H  0.61017774  0.14872652  0.42645012     0.13100
H2813       H  0.63113057  0.15478724  0.47799265     0.09600
H2814       H  0.64152781  0.17649850  0.51628711     0.11700
H2815       H  0.63330378  0.20814746  0.42100091     0.08300
H2816       H  0.62314784  0.18639448  0.38275157     0.11100
C2817       C  0.60448006  0.20725277  0.60115471    -0.03500
C2818       C  0.59136923  0.20393794  0.57795929    -0.06100
C2819       C  0.57884471  0.19525580  0.59237160    -0.21200
C2820       C  0.57888085  0.18987871  0.63054162     0.24500
C2821       C  0.59183862  0.19330119  0.65425761    -0.18800
C2822       C  0.60458905  0.20187393  0.63957578    -0.08700
C2823       C  0.56543351  0.18019513  0.64349676    -0.19000
C2824       C  0.55987613  0.18005862  0.67984178    -0.23800
C2825       C  0.54539385  0.17131982  0.69032283     0.26600
C2826       C  0.53558484  0.17717547  0.71948149    -0.20600
C2827       C  0.52156782  0.16949750  0.72878843    -0.10200
C2828       C  0.51718506  0.15567164  0.70939373    -0.10800
C2829       C  0.52719450  0.14964592  0.68077458    -0.03700
C2830       C  0.54114516  0.15733483  0.67142461    -0.18800
H2831       H  0.59085886  0.20781416  0.54821546     0.10300
H2832       H  0.56903372  0.19272851  0.57351726     0.10400
H2833       H  0.59231264  0.18903337  0.68366190     0.10000
H2834       H  0.61455518  0.20415517  0.65808557     0.11100
H2835       H  0.55901193  0.17397266  0.62116835     0.11200
H2836       H  0.56524595  0.18753431  0.70152259     0.13100
H2837       H  0.53864503  0.18786723  0.73463120     0.09600
H2838       H  0.51418390  0.17437617  0.75120270     0.11700
H2839       H  0.52428368  0.13892021  0.66560535     0.08300
H2840       H  0.54865069  0.15219661  0.64964500     0.11100
C2841       C  0.55980011  0.37144845  0.65479067    -0.03500
C2842       C  0.57453459  0.37380558  0.63765312    -0.06100
C2843       C  0.58234535  0.36141767  0.61941219    -0.21200
C2844       C  0.57572133  0.34632672  0.61802776     0.24500
C2845       C  0.56066969  0.34410342  0.63383416    -0.18800
C2846       C  0.55283793  0.35651819  0.65203762    -0.08700
C2847       C  0.58510795  0.33337381  0.60045370    -0.19000
C2848       C  0.58227174  0.31793017  0.60591863    -0.23800
C2849       C  0.59270986  0.30518960  0.59133007     0.26600
C2850       C  0.58668732  0.28990457  0.58766854    -0.20600
C2851       C  0.59633442  0.27744210  0.57614783    -0.10200
C2852       C  0.61230114  0.27997068  0.56836227    -0.10800
C2853       C  0.61832092  0.29526714  0.57195232    -0.03700
C2854       C  0.60869300  0.30770393  0.58338478    -0.18800
H2855       H  0.58023564  0.38514425  0.63915261     0.10300
H2856       H  0.59384042  0.36355522  0.60722141     0.10400
H2857       H  0.55484575  0.33285972  0.63246860     0.10000
H2858       H  0.54144886  0.35431154  0.66472108     0.11100
H2859       H  0.59519386  0.33686362  0.58344631     0.11200
H2860       H  0.57208995  0.31426446  0.62228765     0.13100
H2861       H  0.57447140  0.28757815  0.59395456     0.09600
H2862       H  0.59132566  0.26580457  0.57377451     0.11700
H2863       H  0.63058909  0.29762905  0.56645858     0.08300
H2864       H  0.61400497  0.31912193  0.58705887     0.11100
C2865       C  0.84669154  0.27629865  0.08394328    -0.03500
C2866       C  0.85739011  0.28189441  0.11143235    -0.06100
C2867       C  0.85472863  0.27961287  0.15056543    -0.21200
C2868       C  0.84150928  0.27137852  0.16321387     0.24500
C2869       C  0.83063350  0.26579581  0.13590186    -0.18800
C2870       C  0.83314566  0.26841009  0.09637167    -0.08700
C2871       C  0.83968277  0.26912460  0.20522647    -0.19000
C2872       C  0.83319818  0.25632209  0.22128478    -0.23800
C2873       C  0.83463255  0.25324541  0.26329400     0.26600
C2874       C  0.83583221  0.23771003  0.27635257    -0.20600
C2875       C  0.83901113  0.23455396  0.31519149    -0.10200
C2876       C  0.84105314  0.24691859  0.34158399    -0.10800
C2877       C  0.83916350  0.26242899  0.32882208    -0.03700
C2878       C  0.83580257  0.26556395  0.29021216    -0.18800
H2879       H  0.86779127  0.28825825  0.10266667     0.10300
H2880       H  0.86319698  0.28411156  0.17108297     0.10400
H2881       H  0.82016626  0.25965837  0.14503203     0.10000
H2882       H  0.82468226  0.26412027  0.07561014     0.11100
H2883       H  0.84576450  0.27748960  0.22351490     0.11200
H2884       H  0.82855580  0.24709435  0.20291510     0.13100
H2885       H  0.83485897  0.22802374  0.25623360     0.09600
H2886       H  0.84027953  0.22246860  0.32434692     0.11700
H2887       H  0.84029856  0.27217512  0.34870529     0.08300
H2888       H  0.83429015  0.27766486  0.28152480     0.11100
C2889       C  0.85240623  0.26189502  0.57976964    -0.03500
C2890       C  0.83713665  0.26089055  0.59477932    -0.06100
C2891       C  0.83418040  0.26457926  0.63342226    -0.21200
C2892       C  0.84632489  0.26970300  0.65757966     0.24500
C2893       C  0.86155165  0.27107970  0.64237257    -0.18800
C2894       C  0.86456518  0.26713627  0.60388295    -0.08700
C2895       C  0.84298672  0.27252450  0.69902466    -0.19000
C2896       C  0.85077673  0.28322458  0.72013120    -0.23800
C2897       C  0.84792186  0.28559901  0.76195471     0.26600
C2898       C  0.85030026  0.30053363  0.77792721    -0.20600
C2899       C  0.84866384  0.30296871  0.81762742    -0.10200
C2900       C  0.84501666  0.29039644  0.84225849    -0.10800
C2901       C  0.84256459  0.27543535  0.82630281    -0.03700
C2902       C  0.84388969  0.27306742  0.78647825    -0.18800
H2903       H  0.82754792  0.25678655  0.57696927     0.10300
H2904       H  0.82238547  0.26332880  0.64457670     0.10400
H2905       H  0.87124630  0.27465404  0.66048167     0.10000
H2906       H  0.87645340  0.26798993  0.59313384     0.11100
H2907       H  0.83346464  0.26595080  0.71214315     0.11200
H2908       H  0.85918130  0.29091327  0.70608038     0.13100
H2909       H  0.85356133  0.31031916  0.75964172     0.09600
H2910       H  0.85083486  0.31457073  0.82923274     0.11700
H2911       H  0.83984620  0.26551998  0.84469720     0.08300
H2912       H  0.84234619  0.26132612  0.77517734     0.11100
C2913       C  0.80644941  0.22712481  0.47798465    -0.03500
C2914       C  0.80116221  0.21243115  0.49123520    -0.06100
C2915       C  0.78526345  0.21003668  0.50012713    -0.21200
C2916       C  0.77433222  0.22229028  0.49634937     0.24500
C2917       C  0.77961777  0.23685816  0.48221237    -0.18800
C2918       C  0.79542337  0.23924804  0.47342485    -0.08700
C2919       C  0.75750312  0.21962045  0.50673946    -0.19000
C2920       C  0.74816010  0.23142126  0.51886582    -0.23800
C2921       C  0.73123475  0.23016407  0.52954122     0.26600
C2922       C  0.72438824  0.24324214  0.54740147    -0.20600
C2923       C  0.70847503  0.24351087  0.55631198    -0.10200
C2924       C  0.69873213  0.23069271  0.54757065    -0.10800
C2925       C  0.70552223  0.21736433  0.53024092    -0.03700
C2926       C  0.72164436  0.21709044  0.52123087    -0.18800
H2927       H  0.80930593  0.20279915  0.49482159     0.10300
H2928       H  0.78152911  0.19864068  0.51048739     0.10400
H2929       H  0.77155991  0.24644488  0.47727777     0.10000
H2930       H  0.79898067  0.25066096  0.46280898     0.11100
H2931       H  0.75305338  0.20770200  0.50590969     0.11200
H2932       H  0.75335491  0.24295739  0.52241594     0.13100
H2933       H  0.73137675  0.25349610  0.55417570     0.09600
H2934       H  0.70377067  0.25398717  0.56968920     0.11700
H2935       H  0.69833911  0.20731577  0.52296355     0.08300
H2936       H  0.72639067  0.20683606  0.50705117     0.11100
C2937       C  0.87084923  0.19389925  0.53992736    -0.03500
C2938       C  0.87532588  0.17962707  0.52281464    -0.06100
C2939       C  0.88239020  0.16787733  0.54485466    -0.21200
C2940       C  0.88471781  0.16996074  0.58455720     0.24500
C2941       C  0.87921124  0.18377119  0.60225950    -0.18800
C2942       C  0.87244339  0.19569510  0.58003678    -0.08700
C2943       C  0.89509071  0.15888038  0.60531225    -0.19000
C2944       C  0.89415668  0.15620178  0.64345990    -0.23800
C2945       C  0.90701694  0.14847580  0.66497135     0.26600
C2946       C  0.90366999  0.13948638  0.69792636    -0.20600
C2947       C  0.91581805  0.13410844  0.72169412    -0.10200
C2948       C  0.93140661  0.13812624  0.71338317    -0.10800
C2949       C  0.93478000  0.14664063  0.67975365    -0.03700
C2950       C  0.92272859  0.15165402  0.65557567    -0.18800
H2951       H  0.87438554  0.17795551  0.49190451     0.10300
H2952       H  0.88667496  0.15741173  0.53056502     0.10400
H2953       H  0.88113412  0.18587292  0.63270535     0.10000
H2954       H  0.86914206  0.20659737  0.59390992     0.11100
H2955       H  0.90440368  0.15334836  0.58877844     0.11200
H2956       H  0.88413629  0.16046357  0.65971237     0.13100
H2957       H  0.89163808  0.13705210  0.70588051     0.09600
H2958       H  0.91297300  0.12772524  0.74781375     0.11700
H2959       H  0.94673315  0.14994060  0.67298910     0.08300
H2960       H  0.92568115  0.15887015  0.63089496     0.11100
C2961       C  0.99015254  0.15788625  0.31359896    -0.03500
C2962       C  0.99011593  0.17409884  0.30616077    -0.06100
C2963       C  0.97748942  0.18344816  0.31781548    -0.21200
C2964       C  0.96444859  0.17675793  0.33622257     0.24500
C2965       C  0.96440709  0.16050937  0.34347252    -0.18800
C2966       C  0.97718224  0.15119673  0.33250386    -0.08700
C2967       C  0.95158335  0.18715522  0.34977461    -0.19000
C2968       C  0.93650444  0.18253355  0.35198541    -0.23800
C2969       C  0.92384615  0.19263048  0.36805271     0.26600
C2970       C  0.90831355  0.19039974  0.35578285    -0.20600
C2971       C  0.89600627  0.19886286  0.37270235    -0.10200
C2972       C  0.89897383  0.20946436  0.40291066    -0.10800
C2973       C  0.91454786  0.21187428  0.41472377    -0.03700
C2974       C  0.92684420  0.20361354  0.39744454    -0.18800
H2975       H  0.99999502  0.17961250  0.29196510     0.10300
H2976       H  0.97788528  0.19596012  0.31234639     0.10400
H2977       H  0.95472230  0.15504817  0.35853611     0.10000
H2978       H  0.97689915  0.13874528  0.33875838     0.11100
H2979       H  0.95462184  0.19917546  0.35702551     0.11200
H2980       H  0.93322847  0.17104307  0.34106000     0.13100
H2981       H  0.90567774  0.18192669  0.33339519     0.09600
H2982       H  0.88412302  0.19666316  0.36318198     0.11700
H2983       H  0.91721161  0.21994119  0.43797943     0.08300
H2984       H  0.93859263  0.20538580  0.40832985     0.11100
C2985       C  0.89087806  0.28052910  0.44177823    -0.03500
C2986       C  0.90716496  0.27841762  0.43819922    -0.06100
C2987       C  0.91682869  0.29079553  0.42639048    -0.21200
C2988       C  0.91052123  0.30563034  0.41809113     0.24500
C2989       C  0.89419907  0.30774516  0.42141990    -0.18800
C2990       C  0.88451945  0.29535124  0.43326810    -0.08700
C2991       C  0.92120461  0.31826676  0.40401574    -0.19000
C2992       C  0.91797518  0.33372891  0.40710332    -0.23800
C2993       C  0.92787461  0.34656680  0.39063843     0.26600
C2994       C  0.92124856  0.36159021  0.38711246    -0.20600
C2995       C  0.92953873  0.37385597  0.36968166    -0.10200
C2996       C  0.94478859  0.37147042  0.35556538    -0.10800
C2997       C  0.95173528  0.35663346  0.36054797    -0.03700
C2998       C  0.94340717  0.34431786  0.37789413    -0.18800
H2999       H  0.91247824  0.26716413  0.44448575     0.10300
H3000       H  0.92931522  0.28876862  0.42374909     0.10400
H3001       H  0.88876751  0.31880451  0.41400988     0.10000
H3002       H  0.87201310  0.29733079  0.43528568     0.11100
H3003       H  0.93203435  0.31449019  0.39058690     0.11200
H3004       H  0.90721625  0.33727974  0.42133562     0.13100
H3005       H  0.90939748  0.36376649  0.39697351     0.09600
H3006       H  0.92384369  0.38513707  0.36651417     0.11700
H3007       H  0.96350258  0.35440909  0.35019130     0.08300
H3008       H  0.94922899  0.33313410  0.38096048     0.11100
loop_ 
_geom_bond_atom_site_label_1 
_geom_bond_atom_site_label_2 
_geom_bond_distance 
_geom_bond_site_symmetry_2 
_ccdc_geom_bond_type 
O1          Cr19   2.021       .  S
O1            C9   1.268       .  A
O2          Cr19   1.969       .  S
O2            C3   1.261       .  A
C3            O4   1.267       .  A
C3         C2876   1.475       .  S
O4          Cr20   2.008       .  S
O5          Cr20   1.987       .  S
O5            C6   1.264       .  A
C6            O7   1.267       .  A
C6         C2972   1.483       .  S
O7          Cr21   2.006       .  S
O8          Cr21   1.974       .  S
O8            C9   1.259       .  A
C9         C2985   1.488       .  S
O10         Cr19   1.974       .  S
O10          C18   1.259       .  A
O11         Cr19   2.009       .  S
O11          C12   1.267       .  A
C12          O13   1.263       .  A
C12        C2913   1.491       .  S
O13         Cr20   1.993       .  S
O14         Cr20   2.005       .  S
O14          C15   1.265       .  A
C15          O16   1.260       .  A
C15        C2937   1.478       .  S
O16         Cr21   1.979       .  S
O17         Cr21   2.011       .  S
O17          C18   1.266       .  A
C18        C2889   1.479       .  S
Cr19         O22   1.771       .  S
Cr20         O22   1.776       .  S
Cr21         O22   1.771       .  S
O23         Cr41   2.008       .  S
O23          C31   1.265       .  A
O24         Cr41   1.977       .  S
O24          C25   1.263       .  A
C25          O26   1.270       .  A
C25        C2769   1.482       .  S
O26         Cr42   2.014       .  S
O27         Cr42   1.993       .  S
O27          C28   1.263       .  A
C28          O29   1.264       .  A
C28        C2817   1.485       .  S
O29         Cr43   1.995       .  S
O30         Cr43   1.986       .  S
O30          C31   1.261       .  A
C31        C2852   1.486       .  S
O32         Cr41   1.988       .  S
O32          C40   1.263       .  A
O33         Cr41   1.997       .  S
O33          C34   1.264       .  A
C34          O35   1.263       .  A
C34        C2924   1.492       .  S
O35         Cr42   2.003       .  S
O36         Cr42   2.011       .  S
O36          C37   1.268       .  A
C37          O38   1.262       .  A
C37        C2804   1.485       .  S
O38         Cr43   1.980       .  S
O39         Cr43   2.005       .  S
O39          C40   1.266       .  A
C40        C2756   1.482       .  S
Cr41         O44   1.771       .  S
Cr42         O44   1.775       .  S
Cr43         O44   1.768       .  S
O45         Cr63   1.987   1_554  S
O45          C53   1.262       .  A
O46         Cr63   1.997       .  S
O46          C47   1.264       .  A
C47          O48   1.263       .  A
C47        C2649   1.487       .  S
O48         Cr64   2.001       .  S
O49         Cr64   2.022       .  S
O49          C50   1.269   1_556  A
C50          O51   1.261       .  A
C50        C2697   1.481       .  S
O51         Cr65   1.972   1_554  S
O52         Cr65   1.992   1_554  S
O52          C53   1.264       .  A
C53        C2865   1.471       .  S
O54         Cr63   2.011       .  S
O54          C62   1.267       .  A
O55         Cr63   1.970       .  S
O55          C56   1.262       .  A
C56          O57   1.271       .  A
C56        C2900   1.477       .  S
O57         Cr64   2.014       .  S
O58         Cr64   1.987       .  S
O58          C59   1.261       .  A
C59          O60   1.262       .  A
C59        C2721   1.481       .  S
O60         Cr65   1.993       .  S
O61         Cr65   1.981       .  S
O61          C62   1.261       .  A
C62        C2684   1.484       .  S
Cr63         O66   1.773       .  S
Cr64         O66   1.772       .  S
Cr65         O66   1.764       .  S
O67         Cr85   2.021       .  S
O67          C75   1.270   1_554  A
O68         Cr85   1.970       .  S
O68          C69   1.257       .  A
C69          O70   1.266       .  A
C69        C2660   1.489       .  S
O70         Cr86   2.023       .  S
O71         Cr86   1.984       .  S
O71          C72   1.261       .  A
C72          O73   1.268       .  A
C72        C2612   1.474   1_554  S
O73         Cr87   2.015       .  S
O74         Cr87   1.964   1_556  S
O74          C75   1.260       .  A
C75        C2780   1.474       .  S
O76         Cr85   1.976       .  S
O76          C84   1.258       .  A
O77         Cr85   2.022       .  S
O77          C78   1.271       .  A
C78          O79   1.260       .  A
C78        C2745   1.485       .  S
O79         Cr86   1.965       .  S
O80         Cr86   2.019       .  S
O80          C81   1.269       .  A
C81          O82   1.259       .  A
C81        C2636   1.480       .  S
O82         Cr87   1.968       .  S
O83         Cr87   2.011       .  S
O83          C84   1.265       .  A
C84        C2577   1.486       .  S
Cr85         O88   1.770       .  S
Cr86         O88   1.776       .  S
Cr87         O88   1.773       .  S
O89        Cr107   2.011       .  S
O89          C97   1.268       .  A
O90        Cr107   1.980       .  S
O90          C91   1.259       .  A
C91          O92   1.267       .  A
C91        C2553   1.492       .  S
O92        Cr108   2.024       .  S
O93        Cr108   1.993       .  S
O93          C94   1.263       .  A
C94          O95   1.265       .  A
C94        C2601   1.471       .  S
O95        Cr109   2.002       .  S
O96        Cr109   1.966       .  S
O96          C97   1.259       .  A
C97        C2529   1.478       .  S
O98        Cr107   1.977       .  S
O98         C106   1.258       .  A
O99        Cr107   2.009       .  S
O99         C100   1.269       .  A
C100        O101   1.262       .  A
C100       C2516   1.477       .  S
O101       Cr108   1.968       .  S
O102       Cr108   2.026       .  S
O102        C103   1.271       .  A
C103        O104   1.260       .  A
C103       C2841   1.486       .  S
O104       Cr109   1.974       .  S
O105       Cr109   2.008       .  S
O105        C106   1.265       .  A
C106       C2492   1.483       .  S
Cr107       O110   1.770       .  S
Cr108       O110   1.772       .  S
Cr109       O110   1.769       .  S
O111       Cr129   1.987       .  S
O111        C119   1.262       .  A
O112       Cr129   1.999       .  S
O112        C113   1.263       .  A
C113        O114   1.264       .  A
C113       C2564   1.494       .  S
O114       Cr130   2.006       .  S
O115       Cr130   2.011       .  S
O115        C116   1.268       .  A
C116        O117   1.262       .  A
C116       C2385   1.483       .  S
O117       Cr131   1.980       .  S
O118       Cr131   1.996       .  S
O118        C119   1.264       .  A
C119       C2457   1.478       .  S
O120       Cr129   2.011       .  S
O120        C128   1.267       .  A
O121       Cr129   1.968       .  S
O121        C122   1.263       .  A
C122        O123   1.270       .  A
C122       C2433   1.480       .  S
O123       Cr130   2.015       .  S
O124       Cr130   2.001       .  S
O124        C125   1.264       .  A
C125        O126   1.263       .  A
C125       C2372   1.490       .  S
O126       Cr131   1.994       .  S
O127       Cr131   1.992       .  S
O127        C128   1.263       .  A
C128       C2409   1.490       .  S
Cr129       O132   1.771       .  S
Cr130       O132   1.775       .  S
Cr131       O132   1.768       .  S
O133       Cr151   1.998       .  S
O133        C141   1.262       .  A
O134       Cr151   1.964       .  S
O134        C135   1.260       .  A
C135        O136   1.269       .  A
C135       C2540   1.477       .  S
O136       Cr152   2.013       .  S
O137       Cr152   1.979       .  S
O137        C138   1.261       .  A
C138        O139   1.266       .  A
C138       C2289   1.480       .  S
O139       Cr153   2.003       .  S
O140       Cr153   1.984       .  S
O140        C141   1.260       .  A
C141       C2625   1.479       .  S
O142       Cr151   1.968       .  S
O142        C150   1.260       .  A
O143       Cr151   1.996       .  S
O143        C144   1.263       .  A
C144        O145   1.260       .  A
C144       C2337   1.480       .  S
O145       Cr152   1.989       .  S
O146       Cr152   2.003       .  S
O146        C147   1.266       .  A
C147        O148   1.260       .  A
C147       C2324   1.476       .  S
O148       Cr153   1.972       .  S
O149       Cr153   2.010       .  S
O149        C150   1.269       .  A
C150       C2505   1.473       .  S
Cr151       O154   1.769       .  S
Cr152       O154   1.774       .  S
Cr153       O154   1.767       .  S
O155       Cr173   2.011       .  S
O155        C163   1.267       .  A
O156       Cr173   1.965       .  S
O156        C157   1.261       .  A
C157        O158   1.270       .  A
C157       C2468   1.479       .  S
O158       Cr174   2.016       .  S
O159       Cr174   1.995       .  S
O159        C160   1.263       .  A
C160        O161   1.263       .  A
C160       C2241   1.486       .  S
O161       Cr175   1.995       .  S
O162       Cr175   1.980       .  S
O162        C163   1.261       .  A
C163       C2217   1.483       .  S
O164       Cr173   1.983       .  S
O164        C172   1.260       .  A
O165       Cr173   1.992       .  S
O165        C166   1.263       .  A
C166        O167   1.263       .  A
C166       C2348   1.482       .  S
O167       Cr174   1.993       .  S
O168       Cr174   2.024       .  S
O168        C169   1.270       .  A
C169        O170   1.259       .  A
C169       C2265   1.477       .  S
O170       Cr175   1.966       .  S
O171       Cr175   1.997       .  S
O171        C172   1.263       .  A
C172       C2444   1.478       .  S
Cr173       O176   1.769       .  S
Cr174       O176   1.777       .  S
Cr175       O176   1.765       .  S
O177       Cr195   2.024       .  S
O177        C185   1.270       .  A
O178       Cr195   1.965       .  S
O178        C179   1.260       .  A
C179        O180   1.269       .  A
C179       C2156   1.477       .  S
O180       Cr196   2.014       .  S
O181       Cr196   1.995       .  S
O181        C182   1.263       .  A
C182        O183   1.265       .  A
C182       C2420   1.490       .  S
O183       Cr197   2.004   1_556  S
O184       Cr197   1.973   1_556  S
O184        C185   1.260       .  A
C185       C2132   1.485       .  S
O186       Cr195   1.983   1_554  S
O186        C194   1.261       .  A
O187       Cr195   2.015       .  S
O187        C188   1.266       .  A
C188        O189   1.262       .  A
C188       C2193   1.484   1_556  S
O189       Cr196   1.994       .  S
O190       Cr196   2.014   1_554  S
O190        C191   1.268       .  A
C191        O192   1.261       .  A
C191       C2276   1.481       .  S
O192       Cr197   1.974       .  S
O193       Cr197   2.007       .  S
O193        C194   1.266       .  A
C194       C2169   1.479       .  S
Cr195       O198   1.771       .  S
Cr196       O198   1.772       .  S
Cr197       O198   1.765   1_554  S
O199       Cr217   2.005       .  S
O199        C207   1.265       .  A
O200       Cr217   1.974       .  S
O200        C201   1.263       .  A
C201        O202   1.270       .  A
C201       C2097   1.481       .  S
O202       Cr218   2.015       .  S
O203       Cr218   1.989       .  S
O203        C204   1.263       .  A
C204        O205   1.266       .  A
C204       C2060   1.487       .  S
O205       Cr219   2.005       .  S
O206       Cr219   1.988       .  S
O206        C207   1.261       .  A
C207       C2001   1.486       .  S
O208       Cr217   1.982   1_556  S
O208        C216   1.262       .  A
O209       Cr217   2.002       .  S
O209        C210   1.263       .  A
C210        O211   1.264       .  A
C210       C2204   1.486       .  S
O211       Cr218   2.004       .  S
O212       Cr218   2.014       .  S
O212        C213   1.267   1_554  A
C213        O214   1.262       .  A
C213       C2036   1.483       .  S
O214       Cr219   1.982   1_556  S
O215       Cr219   2.011   1_556  S
O215        C216   1.267       .  A
C216       C2073   1.477       .  S
Cr217       O220   1.769       .  S
Cr218       O220   1.771       .  S
Cr219       O220   1.770       .  S
O221       Cr239   1.984       .  S
O221        C229   1.261       .  A
O222       Cr239   2.013       .  S
O222        C223   1.265       .  A
C223        O224   1.262       .  A
C223       C1977   1.487       .  S
O224       Cr240   1.995       .  S
O225       Cr240   2.015       .  S
O225        C226   1.269       .  A
C226        O227   1.262       .  A
C226       C1940   1.484       .  S
O227       Cr241   1.978       .  S
O228       Cr241   2.003       .  S
O228        C229   1.264       .  A
C229       C2145   1.475       .  S
O230       Cr239   2.020       .  S
O230        C238   1.269       .  A
O231       Cr239   1.967       .  S
O231        C232   1.260       .  A
C232        O233   1.270       .  A
C232       C2180   1.481       .  S
O233       Cr240   2.018       .  S
O234       Cr240   1.995       .  S
O234        C235   1.263       .  A
C235        O236   1.264       .  A
C235       C1964   1.487       .  S
O236       Cr241   1.999       .  S
O237       Cr241   1.977       .  S
O237        C238   1.261       .  A
C238       C2252   1.486       .  S
Cr239       O242   1.772       .  S
Cr240       O242   1.772       .  S
Cr241       O242   1.768       .  S
O243       Cr261   1.988       .  S
O243        C251   1.261       .  A
O244       Cr261   2.012       .  S
O244        C245   1.265       .  A
C245        O246   1.263       .  A
C245       C1988   1.487       .  S
O246       Cr262   1.998       .  S
O247       Cr262   2.004       .  S
O247        C248   1.267       .  A
C248        O249   1.262       .  A
C248       C1868   1.479       .  S
O249       Cr263   1.978       .  S
O250       Cr263   2.004       .  S
O250        C251   1.264       .  A
C251       C2108   1.476       .  S
O252       Cr261   2.023       .  S
O252        C260   1.270       .  A
O253       Cr261   1.973       .  S
O253        C254   1.262       .  A
C254        O255   1.268       .  A
C254       C2084   1.481       .  S
O255       Cr262   2.010       .  S
O256       Cr262   2.003       .  S
O256        C257   1.265       .  A
C257        O258   1.265       .  A
C257       C1881   1.491       .  S
O258       Cr263   1.999       .  S
O259       Cr263   1.972       .  S
O259        C260   1.260       .  A
C260       C1916   1.485       .  S
Cr261       O264   1.771       .  S
Cr262       O264   1.769       .  S
Cr263       O264   1.767       .  S
O265       Cr283   1.998   1_655  S
O265        C273   1.263       .  A
O266       Cr283   1.964       .  S
O266        C267   1.262       .  A
C267        O268   1.272       .  A
C267       C1737   1.480       .  S
O268       Cr284   2.020       .  S
O269       Cr284   1.981       .  S
O269        C270   1.261       .  A
C270        O271   1.267       .  A
C270       C1820   1.488       .  S
O271       Cr285   2.012       .  S
O272       Cr285   1.990       .  S
O272        C273   1.261   1_455  A
C273       C2732   1.482       .  S
O274       Cr283   1.980       .  S
O274        C282   1.263       .  A
O275       Cr283   1.993       .  S
O275        C276   1.261       .  A
C276        O277   1.261       .  A
C276       C1785   1.488       .  S
O277       Cr284   1.999       .  S
O278       Cr284   2.011       .  S
O278        C279   1.268       .  A
C279        O280   1.261       .  A
C279       C1844   1.479       .  S
O280       Cr285   1.973       .  S
O281       Cr285   2.015       .  S
O281        C282   1.269       .  A
C282       C1761   1.479   1_455  S
Cr283       O286   1.769       .  S
Cr284       O286   1.776       .  S
Cr285       O286   1.770       .  S
O287       Cr305   1.967       .  S
O287        C295   1.257       .  A
O288       Cr305   2.018       .  S
O288        C289   1.271       .  A
C289        O290   1.263       .  A
C289       C1700   1.488       .  S
O290       Cr306   1.980       .  S
O291       Cr306   2.003       .  S
O291        C292   1.265       .  A
C292        O293   1.262       .  A
C292       C1905   1.484       .  S
O293       Cr307   1.987       .  S
O294       Cr307   2.018       .  S
O294        C295   1.266       .  A
C295       C1665   1.487   1_455  S
O296       Cr305   2.023       .  S
O296        C304   1.268       .  A
O297       Cr305   1.976       .  S
O297        C298   1.258       .  A
C298        O299   1.266       .  A
C298       C1796   1.488       .  S
O299       Cr306   2.018       .  S
O300       Cr306   1.992       .  S
O300        C301   1.266       .  A
C301        O302   1.267       .  A
C301       C2025   1.473       .  S
O302       Cr307   2.002       .  S
O303       Cr307   1.969       .  S
O303        C304   1.259       .  A
C304       C1724   1.487       .  S
Cr305       O308   1.774       .  S
Cr306       O308   1.779       .  S
Cr307       O308   1.773       .  S
O309       Cr327   2.017       .  S
O309        C317   1.269       .  A
O310       Cr327   1.973       .  S
O310        C311   1.258       .  A
C311        O312   1.268       .  A
C311       C1617   1.492       .  S
O312       Cr328   2.026       .  S
O313       Cr328   1.997       .  S
O313        C314   1.264       .  A
C314        O315   1.265       .  A
C314       C2708   1.481       .  S
O315       Cr329   1.999       .  S
O316       Cr329   1.965       .  S
O316        C317   1.260       .  A
C317       C1748   1.481       .  S
O318       Cr327   1.974   1_455  S
O318        C326   1.257       .  A
O319       Cr327   2.011       .  S
O319        C320   1.268       .  A
C320        O321   1.261       .  A
C320       C1772   1.481       .  S
O321       Cr328   1.970       .  S
O322       Cr328   2.024       .  S
O322        C323   1.271       .  A
C323        O324   1.262       .  A
C323       C2996   1.487       .  S
O324       Cr329   1.977       .  S
O325       Cr329   2.008       .  S
O325        C326   1.264   1_655  A
C326       C1652   1.482       .  S
Cr327       O330   1.773       .  S
Cr328       O330   1.774       .  S
Cr329       O330   1.770       .  S
O331       Cr349   2.024       .  S
O331        C339   1.270       .  A
O332       Cr349   1.980       .  S
O332        C333   1.260       .  A
C333        O334   1.268       .  A
C333       C1628   1.492       .  S
O334       Cr350   2.021       .  S
O335       Cr350   1.985       .  S
O335        C336   1.264       .  A
C336        O337   1.266       .  A
C336       C1593   1.471       .  S
O337       Cr351   2.003       .  S
O338       Cr351   1.969       .  S
O338        C339   1.259       .  A
C339       C1689   1.487       .  S
O340       Cr349   1.973       .  S
O340        C348   1.258   1_655  A
O341       Cr349   2.018       .  S
O341        C342   1.269       .  A
C342        O343   1.261       .  A
C342       C1713   1.487       .  S
O343       Cr350   1.974       .  S
O344       Cr350   2.008       .  S
O344        C345   1.267       .  A
C345        O346   1.262       .  A
C345       C1569   1.488       .  S
O346       Cr351   1.989       .  S
O347       Cr351   2.018       .  S
O347        C348   1.266   1_655  A
C348       C2049   1.487       .  S
Cr349       O352   1.775       .  S
Cr350       O352   1.776       .  S
Cr351       O352   1.775       .  S
O353       Cr371   1.980       .  S
O353        C361   1.259       .  A
O354       Cr371   2.012       .  S
O354        C355   1.267       .  A
C355        O356   1.259       .  A
C355       C1497   1.483       .  S
O356       Cr372   1.972       .  S
O357       Cr372   2.015       .  S
O357        C358   1.269       .  A
C358        O359   1.262       .  A
C358       C2588   1.486       .  S
O359       Cr373   1.980       .  S
O360       Cr373   2.009       .  S
O360        C361   1.265       .  A
C361       C1484   1.485       .  S
O362       Cr371   2.019       .  S
O362        C370   1.268       .  A
O363       Cr371   1.974       .  S
O363        C364   1.260       .  A
C364        O365   1.269       .  A
C364       C1545   1.491       .  S
O365       Cr372   2.024       .  S
O366       Cr372   1.987       .  S
O366        C367   1.262       .  A
C367        O368   1.263       .  A
C367       C2793   1.472       .  S
O368       Cr373   1.995       .  S
O369       Cr373   1.970       .  S
O369        C370   1.259       .  A
C370       C1532   1.482       .  S
Cr371       O374   1.777       .  S
Cr372       O374   1.779       .  S
Cr373       O374   1.770       .  S
O375       Cr393   1.981       .  S
O375        C383   1.259       .  A
O376       Cr393   2.012       .  S
O376        C377   1.268       .  A
C377        O378   1.259       .  A
C377       C1460   1.484       .  S
O378       Cr394   1.971       .  S
O379       Cr394   2.021       .  S
O379        C380   1.272       .  A
C380        O381   1.263       .  A
C380       C1377   1.478       .  S
O381       Cr395   1.971       .  S
O382       Cr395   2.014       .  S
O382        C383   1.265       .  A
C383       C1953   1.487       .  S
O384       Cr393   2.017       .  S
O384        C392   1.270       .  A
O385       Cr393   1.968       .  S
O385        C386   1.258       .  A
C386        O387   1.269       .  A
C386       C1556   1.490       .  S
O387       Cr394   2.026       .  S
O388       Cr394   1.992       .  S
O388        C389   1.260       .  A
C389        O390   1.262       .  A
C389       C1401   1.472       .  S
O390       Cr395   2.000       .  S
O391       Cr395   1.974       .  S
O391        C392   1.262       .  A
C392       C1425   1.483       .  S
Cr393       O396   1.768       .  S
Cr394       O396   1.773       .  S
Cr395       O396   1.771       .  S
O397       Cr415   2.019       .  S
O397        C405   1.270       .  A
O398       Cr415   1.968       .  S
O398        C399   1.258       .  A
C399        O400   1.267       .  A
C399       C1353   1.484       .  S
O400       Cr416   2.017       .  S
O401       Cr416   1.991       .  S
O401        C402   1.262       .  A
C402        O403   1.265       .  A
C402       C1340   1.477       .  S
O403       Cr417   2.003       .  S
O404       Cr417   1.969       .  S
O404        C405   1.261       .  A
C405       C1508   1.482       .  S
O406       Cr415   1.973       .  S
O406        C414   1.258       .  A
O407       Cr415   2.015       .  S
O407        C408   1.269       .  A
C408        O409   1.260       .  A
C408       C1521   1.485       .  S
O409       Cr416   1.973       .  S
O410       Cr416   2.012       .  S
O410        C411   1.270       .  A
C411        O412   1.263       .  A
C411       C1316   1.479       .  S
O412       Cr417   1.976       .  S
O413       Cr417   2.014       .  S
O413        C414   1.265       .  A
C414       C2828   1.483       .  S
Cr415       O418   1.769       .  S
Cr416       O418   1.771       .  S
Cr417       O418   1.770       .  S
O419       Cr437   2.025       .  S
O419        C427   1.270       .  A
O420       Cr437   1.965       .  S
O420        C421   1.256       .  A
C421        O422   1.267       .  A
C421       C1364   1.485       .  S
O422       Cr438   2.023       .  S
O423       Cr438   1.989       .  S
O423        C424   1.263       .  A
C424        O425   1.265       .  A
C424       C1929   1.467       .  S
O425       Cr439   1.998       .  S
O426       Cr439   1.963       .  S
O426        C427   1.259       .  A
C427       C1449   1.485       .  S
O428       Cr437   1.969       .  S
O428        C436   1.256       .  A
O429       Cr437   2.020       .  S
O429        C430   1.270       .  A
C430        O431   1.261       .  A
C430       C1436   1.485       .  S
O431       Cr438   1.970       .  S
O432       Cr438   2.012       .  S
O432        C433   1.269       .  A
C433        O434   1.263       .  A
C433       C2121   1.484       .  S
O434       Cr439   1.982       .  S
O435       Cr439   2.012       .  S
O435        C436   1.265       .  A
C436       C1281   1.482       .  S
Cr437       O440   1.772       .  S
Cr438       O440   1.776       .  S
Cr439       O440   1.770       .  S
O441       Cr459   1.979       .  S
O441        C449   1.260       .  A
O442       Cr459   2.020       .  S
O442        C443   1.270       .  A
C443        O444   1.260       .  A
C443       C1172   1.484       .  S
O444       Cr460   1.969       .  S
O445       Cr460   2.010       .  S
O445        C446   1.267       .  A
C446        O447   1.261       .  A
C446       C1257   1.483       .  S
O447       Cr461   1.982       .  S
O448       Cr461   2.011       .  S
O448        C449   1.266       .  A
C449       C1580   1.486       .  S
O450       Cr459   2.020   1_556  S
O450        C458   1.269       .  A
O451       Cr459   1.981       .  S
O451        C452   1.260       .  A
C452        O453   1.266       .  A
C452       C1209   1.486       .  S
O453       Cr460   2.019       .  S
O454       Cr460   1.984       .  S
O454        C455   1.262   1_554  A
C455        O456   1.265       .  A
C455       C1233   1.466       .  S
O456       Cr461   1.999   1_556  S
O457       Cr461   1.971   1_556  S
O457        C458   1.259       .  A
C458       C1196   1.484       .  S
Cr459       O462   1.772       .  S
Cr460       O462   1.776       .  S
Cr461       O462   1.770       .  S
O463       Cr481   1.989       .  S
O463        C471   1.261       .  A
O464       Cr481   2.011       .  S
O464        C465   1.267       .  A
C465        O466   1.260       .  A
C465       C1137   1.483       .  S
O466       Cr482   1.973       .  S
O467       Cr482   2.015       .  S
O467        C468   1.270       .  A
C468        O469   1.264       .  A
C468       C1292   1.483       .  S
O469       Cr483   1.979       .  S
O470       Cr483   2.010       .  S
O470        C471   1.264       .  A
C471       C2361   1.488       .  S
O472       Cr481   2.009   1_554  S
O472        C480   1.269       .  A
O473       Cr481   1.975       .  S
O473        C474   1.258       .  A
C474        O475   1.267       .  A
C474       C1220   1.485       .  S
O475       Cr482   2.020       .  S
O476       Cr482   1.992   1_554  S
O476        C477   1.262       .  A
C477        O478   1.264       .  A
C477       C1412   1.472       .  S
O478       Cr483   2.001   1_554  S
O479       Cr483   1.977   1_554  S
O479        C480   1.263       .  A
C480       C1113   1.478       .  S
Cr481       O484   1.769       .  S
Cr482       O484   1.773       .  S
Cr483       O484   1.771       .  S
O485       Cr503   2.023       .  S
O485        C493   1.268       .  A
O486       Cr503   1.979       .  S
O486        C487   1.260       .  A
C487        O488   1.267       .  A
C487       C1065   1.486       .  S
O488       Cr504   2.018       .  S
O489       Cr504   1.990       .  S
O489        C490   1.264       .  A
C490        O491   1.266       .  A
C490       C1604   1.472       .  S
O491       Cr505   1.998       .  S
O492       Cr505   1.962       .  S
O492        C493   1.257       .  A
C493       C1161   1.484       .  S
O494       Cr503   1.978       .  S
O494        C502   1.259       .  A
O495       Cr503   2.015       .  S
O495        C496   1.269       .  A
C496        O497   1.263       .  A
C496       C1185   1.485       .  S
O497       Cr504   1.979       .  S
O498       Cr504   2.014       .  S
O498        C499   1.267       .  A
C499        O500   1.260       .  A
C499       C1676   1.486       .  S
O500       Cr505   1.979       .  S
O501       Cr505   2.007       .  S
O501        C502   1.265       .  A
C502       C1089   1.484       .  S
Cr503       O506   1.775       .  S
Cr504       O506   1.776       .  S
Cr505       O506   1.768       .  S
O507       Cr525   2.021       .  S
O507        C515   1.269       .  A
O508       Cr525   1.980       .  S
O508        C509   1.259       .  A
C509        O510   1.268       .  A
C509       C1076   1.482       .  S
O510       Cr526   2.020       .  S
O511       Cr526   1.989       .  S
O511        C512   1.265       .  A
C512        O513   1.265       .  A
C512       C2396   1.467       .  S
O513       Cr527   1.996       .  S
O514       Cr527   1.967       .  S
O514        C515   1.259       .  A
C515       C1148   1.481       .  S
O516       Cr525   1.974       .  S
O516        C524   1.258       .  A
O517       Cr525   2.018       .  S
O517        C518   1.268       .  A
C518        O519   1.260       .  A
C518       C1124   1.484       .  S
O519       Cr526   1.972       .  S
O520       Cr526   2.007       .  S
O520        C521   1.267       .  A
C521        O522   1.262       .  A
C521       C2228   1.484       .  S
O522       Cr527   1.986       .  S
O523       Cr527   2.010       .  S
O523        C524   1.265       .  A
C524       C1388   1.476       .  S
Cr525       O528   1.772       .  S
Cr526       O528   1.771       .  S
Cr527       O528   1.768       .  S
O529       Cr547   2.014       .  S
O529        C537   1.267       .  A
O530       Cr547   1.968       .  S
O530        C531   1.261       .  A
C531        O532   1.269       .  A
C531       C1004   1.482       .  S
O532       Cr548   2.017       .  S
O533       Cr548   1.987       .  S
O533        C534   1.262       .  A
C534        O535   1.264       .  A
C534       C2481   1.481       .  S
O535       Cr549   1.999       .  S
O536       Cr549   1.973       .  S
O536        C537   1.259       .  A
C537       C1305   1.479       .  S
O538       Cr547   1.990       .  S
O538        C546   1.263       .  A
O539       Cr547   2.002       .  S
O539        C540   1.265       .  A
C540        O541   1.262       .  A
C540       C1041   1.487       .  S
O541       Cr548   1.993       .  S
O542       Cr548   2.012       .  S
O542        C543   1.268       .  A
C543        O544   1.260       .  A
C543       C2313   1.476       .  S
O544       Cr549   1.966       .  S
O545       Cr549   2.004       .  S
O545        C546   1.266       .  A
C546       C1028   1.483       .  S
Cr547       O550   1.766       .  S
Cr548       O550   1.774       .  S
Cr549       O550   1.763       .  S
O551       Cr569   2.008       .  S
O551        C559   1.264       .  A
O552       Cr569   1.955       .  S
O552        C553   1.260       .  A
C553        O554   1.273       .  A
C553        C969   1.479       .  S
O554       Cr570   2.028       .  S
O555       Cr570   1.981       .  S
O555        C556   1.261       .  A
C556        O557   1.264       .  A
C556       C1641   1.478       .  S
O557       Cr571   1.998       .  S
O558       Cr571   1.987       .  S
O558        C559   1.260       .  A
C559        C921   1.484       .  S
O560       Cr569   1.972       .  S
O560        C568   1.260       .  A
O561       Cr569   1.996       .  S
O561        C562   1.261       .  A
C562        O563   1.261       .  A
C562       C1052   1.487       .  S
O563       Cr570   1.998       .  S
O564       Cr570   2.016       .  S
O564        C565   1.269       .  A
C565        O566   1.261       .  A
C565       C1833   1.481       .  S
O566       Cr571   1.971       .  S
O567       Cr571   2.008       .  S
O567        C568   1.268       .  A
C568        C945   1.471       .  S
Cr569       O572   1.767       .  S
Cr570       O572   1.774       .  S
Cr571       O572   1.766       .  S
O573       Cr591   2.021       .  S
O573        C581   1.270   1_554  A
O574       Cr591   1.979       .  S
O574        C575   1.257       .  A
C575        O576   1.266       .  A
C575        C908   1.486       .  S
O576       Cr592   2.022       .  S
O577       Cr592   1.995       .  S
O577        C578   1.264       .  A
C578        O579   1.265       .  A
C578       C1329   1.470   1_554  S
O579       Cr593   2.002       .  S
O580       Cr593   1.962   1_556  S
O580        C581   1.260       .  A
C581        C993   1.482       .  S
O582       Cr591   1.977       .  S
O582        C590   1.258       .  A
O583       Cr591   2.024       .  S
O583        C584   1.272       .  A
C584        O585   1.262       .  A
C584       C1017   1.485       .  S
O585       Cr592   1.967       .  S
O586       Cr592   2.022       .  S
O586        C587   1.270       .  A
C587        O588   1.261       .  A
C587       C1473   1.485       .  S
O588       Cr593   1.976       .  S
O589       Cr593   2.002       .  S
O589        C590   1.263       .  A
C590       C2300   1.481       .  S
Cr591       O594   1.773       .  S
Cr592       O594   1.772       .  S
Cr593       O594   1.768       .  S
O595       Cr613   2.014   1_554  S
O595        C603   1.269       .  A
O596       Cr613   1.982       .  S
O596        C597   1.260       .  A
C597        O598   1.266       .  A
C597        C897   1.488   1_556  S
O598       Cr614   2.016       .  S
O599       Cr614   1.986   1_554  S
O599        C600   1.260       .  A
C600        O601   1.265       .  A
C600        C860   1.476       .  S
O601       Cr615   2.006       .  S
O602       Cr615   1.965       .  S
O602        C603   1.261       .  A
C603        C980   1.478       .  S
O604       Cr613   1.989       .  S
O604        C612   1.261       .  A
O605       Cr613   2.014       .  S
O605        C606   1.269       .  A
C606        O607   1.258       .  A
C606        C956   1.477       .  S
O607       Cr614   1.958       .  S
O608       Cr614   2.020       .  S
O608        C609   1.270       .  A
C609        O610   1.261       .  A
C609        C884   1.479       .  S
O610       Cr615   1.969   1_556  S
O611       Cr615   2.009   1_556  S
O611        C612   1.265       .  A
C612       C1809   1.489       .  S
Cr613       O616   1.772       .  S
Cr614       O616   1.773       .  S
Cr615       O616   1.766   1_554  S
O617       Cr635   1.968   1_455  S
O617        C625   1.257       .  A
O618       Cr635   2.016       .  S
O618        C619   1.268       .  A
C619        O620   1.259       .  A
C619        C777   1.481       .  S
O620       Cr636   1.964       .  S
O621       Cr636   2.010       .  S
O621        C622   1.268       .  A
C622        O623   1.262       .  A
C622       C2673   1.483       .  S
O623       Cr637   1.980       .  S
O624       Cr637   2.010       .  S
O624        C625   1.265   1_655  A
C625        C873   1.479       .  S
O626       Cr635   2.022       .  S
O626        C634   1.269       .  A
O627       Cr635   1.970       .  S
O627        C628   1.259       .  A
C628        O629   1.267       .  A
C628        C836   1.483       .  S
O629       Cr636   2.016       .  S
O630       Cr636   1.980       .  S
O630        C631   1.262       .  A
C631        O632   1.266       .  A
C631       C2948   1.470       .  S
O632       Cr637   1.998       .  S
O633       Cr637   1.962       .  S
O633        C634   1.258       .  A
C634        C801   1.479       .  S
Cr635       O638   1.772       .  S
Cr636       O638   1.773       .  S
Cr637       O638   1.768       .  S
O639       Cr657   1.977       .  S
O639        C647   1.259   1_655  A
O640       Cr657   2.010       .  S
O640        C641   1.267       .  A
C641        O642   1.260       .  A
C641        C764   1.481       .  S
O642       Cr658   1.970       .  S
O643       Cr658   2.006       .  S
O643        C644   1.267       .  A
C644        O645   1.263       .  A
C644       C1100   1.483       .  S
O645       Cr659   1.984       .  S
O646       Cr659   2.020       .  S
O646        C647   1.267   1_655  A
C647       C1892   1.489       .  S
O648       Cr657   2.014       .  S
O648        C656   1.268       .  A
O649       Cr657   1.969       .  S
O649        C650   1.258       .  A
C650        O651   1.267       .  A
C650        C825   1.484       .  S
O651       Cr658   2.017       .  S
O652       Cr658   1.983       .  S
O652        C653   1.261       .  A
C653        O654   1.266       .  A
C653       C1244   1.467       .  S
O654       Cr659   2.004       .  S
O655       Cr659   1.965       .  S
O655        C656   1.259       .  A
C656        C729   1.480       .  S
Cr657       O660   1.771       .  S
Cr658       O660   1.776       .  S
Cr659       O660   1.771       .  S
O661       Cr679   2.021       .  S
O661        C669   1.271       .  A
O662       Cr679   1.969       .  S
O662        C663   1.258       .  A
C663        O664   1.269       .  A
C663        C716   1.492       .  S
O664       Cr680   2.030       .  S
O665       Cr680   1.988       .  S
O665        C666   1.261       .  A
C666        O667   1.264       .  A
C666        C849   1.469       .  S
O667       Cr681   2.005       .  S
O668       Cr681   1.966       .  S
O668        C669   1.261       .  A
C669        C788   1.482       .  S
O670       Cr679   1.977       .  S
O670        C678   1.257       .  A
O671       Cr679   2.016       .  S
O671        C672   1.270       .  A
C672        O673   1.259       .  A
C672        C812   1.480       .  S
O673       Cr680   1.961       .  S
O674       Cr680   2.031       .  S
O674        C675   1.273       .  A
C675        O676   1.260       .  A
C675        C932   1.484       .  S
O676       Cr681   1.967       .  S
O677       Cr681   2.010       .  S
O677        C678   1.264       .  A
C678       C2961   1.483   1_455  S
Cr679       O682   1.770       .  S
Cr680       O682   1.774       .  S
Cr681       O682   1.768       .  S
O683       Cr701   2.024       .  S
O683        C691   1.270       .  A
O684       Cr701   1.975       .  S
O684        C685   1.261       .  A
C685        O686   1.270       .  A
C685        C705   1.491       .  S
O686       Cr702   2.026       .  S
O687       Cr702   1.979       .  S
O687        C688   1.260       .  A
C688        O689   1.264       .  A
C688       C1857   1.463       .  S
O689       Cr703   1.992       .  S
O690       Cr703   1.961       .  S
O690        C691   1.258       .  A
C691        C753   1.482       .  S
O692       Cr701   1.977       .  S
O692        C700   1.258       .  A
O693       Cr701   2.011       .  S
O693        C694   1.267       .  A
C694        O695   1.258       .  A
C694        C740   1.478       .  S
O695       Cr702   1.963       .  S
O696       Cr702   2.022       .  S
O696        C697   1.270       .  A
C697        O698   1.260       .  A
C697       C2012   1.485       .  S
O698       Cr703   1.972       .  S
O699       Cr703   2.007       .  S
O699        C700   1.263       .  A
C700       C1268   1.483   1_455  S
Cr701       O704   1.773       .  S
Cr702       O704   1.776       .  S
Cr703       O704   1.769       .  S
C705        C706   1.408       .  A
C705        C710   1.407       .  A
C706        C707   1.406       .  A
C706        H719   1.083       .  S
C707        C708   1.406       .  A
C707        H720   1.083       .  S
C708        C709   1.407       .  A
C708        C711   1.495   1_565  S
C709        C710   1.399       .  A
C709        H721   1.082       .  S
C710        H722   1.083       .  S
C711        C712   1.349       .  D
C711        H723   1.086       .  S
C712        C713   1.491       .  S
C712        H724   1.086       .  S
C713        C714   1.402       .  A
C713        C718   1.409       .  A
C714        C715   1.395       .  A
C714        H725   1.084       .  S
C715        C716   1.407       .  A
C715        H726   1.083       .  S
C716        C717   1.410       .  A
C717        C718   1.410       .  A
C717        H727   1.083       .  S
C718        H728   1.082       .  S
C729        C730   1.406   1_655  A
C729        C734   1.406       .  A
C730        C731   1.400       .  A
C730        H743   1.083       .  S
C731        C732   1.404       .  A
C731        H744   1.083       .  S
C732        C733   1.406   1_455  A
C732        C735   1.483       .  S
C733        C734   1.394       .  A
C733        H745   1.082       .  S
C734        H746   1.083       .  S
C735        C736   1.347       .  D
C735        H747   1.085       .  S
C736        C737   1.484   1_556  S
C736        H748   1.086   1_455  S
C737        C738   1.404       .  A
C737        C742   1.406       .  A
C738        C739   1.399       .  A
C738        H749   1.083   1_455  S
C739        C740   1.404       .  A
C739        H750   1.083       .  S
C740        C741   1.405       .  A
C741        C742   1.395       .  A
C741        H751   1.083       .  S
C742        H752   1.081       .  S
C753        C754   1.407       .  A
C753        C758   1.405   1_455  A
C754        C755   1.395       .  A
C754        H767   1.083       .  S
C755        C756   1.402       .  A
C755        H768   1.084       .  S
C756        C757   1.409   1_455  A
C756        C759   1.486       .  S
C757        C758   1.402       .  A
C757        H769   1.081       .  S
C758        H770   1.083       .  S
C759        C760   1.346   1_455  D
C759        H771   1.086       .  S
C760        C761   1.485       .  S
C760        H772   1.085       .  S
C761        C762   1.402       .  A
C761        C766   1.408       .  A
C762        C763   1.397       .  A
C762        H773   1.083       .  S
C763        C764   1.406       .  A
C763        H774   1.083       .  S
C764        C765   1.406       .  A
C765        C766   1.398       .  A
C765        H775   1.083       .  S
C766        H776   1.082   1_655  S
C777        C778   1.406       .  A
C777        C782   1.405       .  A
C778        C779   1.395       .  A
C778        H791   1.083       .  S
C779        C780   1.401       .  A
C779        H792   1.084   1_556  S
C780        C781   1.409       .  A
C780        C783   1.485   1_556  S
C781        C782   1.401       .  A
C781        H793   1.082   1_655  S
C782        H794   1.083   1_655  S
C783        C784   1.346   1_655  D
C783        H795   1.085       .  S
C784        C785   1.487       .  S
C784        H796   1.086       .  S
C785        C786   1.402       .  A
C785        C790   1.409   1_455  A
C786        C787   1.396       .  A
C786        H797   1.084       .  S
C787        C788   1.406       .  A
C787        H798   1.083       .  S
C788        C789   1.405       .  A
C789        C790   1.400   1_455  A
C789        H799   1.083   1_455  S
C790        H800   1.081       .  S
C801        C802   1.405   1_655  A
C801        C806   1.406       .  A
C802        C803   1.401       .  A
C802        H815   1.083       .  S
C803        C804   1.405       .  A
C803        H816   1.083       .  S
C804        C805   1.406   1_455  A
C804        C807   1.485       .  S
C805        C806   1.394       .  A
C805        H817   1.082       .  S
C806        H818   1.083       .  S
C807        C808   1.349       .  D
C807        H819   1.084       .  S
C808        C809   1.487       .  S
C808        H820   1.085   1_455  S
C809        C810   1.405       .  A
C809        C814   1.407       .  A
C810        C811   1.398       .  A
C810        H821   1.083   1_455  S
C811        C812   1.404       .  A
C811        H822   1.083       .  S
C812        C813   1.407       .  A
C813        C814   1.396       .  A
C813        H823   1.083       .  S
C814        H824   1.080       .  S
C825        C826   1.405       .  A
C825        C830   1.407       .  A
C826        C827   1.395       .  A
C826        H839   1.083       .  S
C827        C828   1.402       .  A
C827        H840   1.084       .  S
C828        C829   1.408       .  A
C828        C831   1.486   1_565  S
C829        C830   1.403       .  A
C829        H841   1.081       .  S
C830        H842   1.083       .  S
C831        C832   1.347       .  D
C831        H843   1.086       .  S
C832        C833   1.487       .  S
C832        H844   1.085       .  S
C833        C834   1.404       .  A
C833        C838   1.406       .  A
C834        C835   1.402       .  A
C834        H845   1.083       .  S
C835        C836   1.407       .  A
C835        H846   1.083       .  S
C836        C837   1.406       .  A
C837        C838   1.396       .  A
C837        H847   1.083       .  S
C838        H848   1.082       .  S
C849        C850   1.401       .  A
C849        C854   1.402       .  A
C850        C851   1.402       .  A
C850        H863   1.083       .  S
C851        C852   1.407       .  A
C851        H864   1.083       .  S
C852        C853   1.407       .  A
C852        C855   1.485       .  S
C853        C854   1.395       .  A
C853        H865   1.082       .  S
C854        H866   1.084       .  S
C855        C856   1.347       .  D
C855        H867   1.087       .  S
C856        C857   1.484       .  S
C856        H868   1.086       .  S
C857        C858   1.406       .  A
C857        C862   1.405       .  A
C858        C859   1.404       .  A
C858        H869   1.083       .  S
C859        C860   1.405       .  A
C859        H870   1.083       .  S
C860        C861   1.403       .  A
C861        C862   1.392       .  A
C861        H871   1.083       .  S
C862        H872   1.083       .  S
C873        C874   1.406       .  A
C873        C878   1.405       .  A
C874        C875   1.396       .  A
C874        H887   1.083       .  S
C875        C876   1.402       .  A
C875        H888   1.084       .  S
C876        C877   1.407       .  A
C876        C879   1.483       .  S
C877        C878   1.398       .  A
C877        H889   1.082       .  S
C878        H890   1.083       .  S
C879        C880   1.346       .  D
C879        H891   1.086       .  S
C880        C881   1.482       .  S
C880        H892   1.085       .  S
C881        C882   1.402       .  A
C881        C886   1.407       .  A
C882        C883   1.397       .  A
C882        H893   1.083       .  S
C883        C884   1.406       .  A
C883        H894   1.083       .  S
C884        C885   1.405       .  A
C885        C886   1.397       .  A
C885        H895   1.083       .  S
C886        H896   1.082       .  S
C897        C898   1.407       .  A
C897        C902   1.407   1_554  A
C898        C899   1.401       .  A
C898        H911   1.083       .  S
C899        C900   1.404       .  A
C899        H912   1.083       .  S
C900        C901   1.407   1_554  A
C900        C903   1.491       .  S
C901        C902   1.403       .  A
C901        H913   1.082       .  S
C902        H914   1.083       .  S
C903        C904   1.349       .  D
C903        H915   1.086       .  S
C904        C905   1.491       .  S
C904        H916   1.086   1_554  S
C905        C906   1.404   1_554  A
C905        C910   1.408       .  A
C906        C907   1.400   1_556  A
C906        H917   1.083       .  S
C907        C908   1.406       .  A
C907        H918   1.083   1_554  S
C908        C909   1.407       .  A
C909        C910   1.404       .  A
C909        H919   1.083       .  S
C910        H920   1.082       .  S
C921        C922   1.405       .  A
C921        C926   1.406       .  A
C922        C923   1.396       .  A
C922        H935   1.083       .  S
C923        C924   1.403       .  A
C923        H936   1.084       .  S
C924        C925   1.411       .  A
C924        C927   1.491       .  S
C925        C926   1.403       .  A
C925        H937   1.080       .  S
C926        H938   1.083       .  S
C927        C928   1.348       .  D
C927        H939   1.084       .  S
C928        C929   1.491       .  S
C928        H940   1.084       .  S
C929        C930   1.403       .  A
C929        C934   1.410       .  A
C930        C931   1.398       .  A
C930        H941   1.084       .  S
C931        C932   1.407       .  A
C931        H942   1.083       .  S
C932        C933   1.405       .  A
C933        C934   1.401       .  A
C933        H943   1.083       .  S
C934        H944   1.081       .  S
C945        C946   1.405       .  A
C945        C950   1.402       .  A
C946        C947   1.399       .  A
C946        H959   1.083       .  S
C947        C948   1.402       .  A
C947        H960   1.083       .  S
C948        C949   1.407       .  A
C948        C951   1.480       .  S
C949        C950   1.392       .  A
C949        H961   1.082       .  S
C950        H962   1.083       .  S
C951        C952   1.344       .  D
C951        H963   1.085       .  S
C952        C953   1.481       .  S
C952        H964   1.087       .  S
C953        C954   1.401       .  A
C953        C958   1.409       .  A
C954        C955   1.392       .  A
C954        H965   1.084       .  S
C955        C956   1.405       .  A
C955        H966   1.083       .  S
C956        C957   1.404       .  A
C957        C958   1.399       .  A
C957        H967   1.083       .  S
C958        H968   1.081       .  S
C969        C970   1.405       .  A
C969        C974   1.405       .  A
C970        C971   1.391       .  A
C970        H983   1.083       .  S
C971        C972   1.401       .  A
C971        H984   1.084       .  S
C972        C973   1.410       .  A
C972        C975   1.484       .  S
C973        C974   1.402       .  A
C973        H985   1.080       .  S
C974        H986   1.083       .  S
C975        C976   1.345       .  D
C975        H987   1.087       .  S
C976        C977   1.483       .  S
C976        H988   1.084       .  S
C977        C978   1.402       .  A
C977        C982   1.406       .  A
C978        C979   1.400       .  A
C978        H989   1.083       .  S
C979        C980   1.406       .  A
C979        H990   1.083       .  S
C980        C981   1.404       .  A
C981        C982   1.393       .  A
C981        H991   1.083       .  S
C982        H992   1.082       .  S
C993        C994   1.405       .  A
C993        C998   1.406       .  A
C994        C995   1.393       .  A
C994       H1007   1.083       .  S
C995        C996   1.402       .  A
C995       H1008   1.084       .  S
C996        C997   1.410       .  A
C996        C999   1.488       .  S
C997        C998   1.404       .  A
C997       H1009   1.080       .  S
C998       H1010   1.083       .  S
C999       C1000   1.348       .  D
C999       H1011   1.085       .  S
C1000      C1001   1.489       .  S
C1000      H1012   1.084       .  S
C1001      C1002   1.405       .  A
C1001      C1006   1.407       .  A
C1002      C1003   1.402       .  A
C1002      H1013   1.083       .  S
C1003      C1004   1.406       .  A
C1003      H1014   1.083       .  S
C1004      C1005   1.405       .  A
C1005      C1006   1.394       .  A
C1005      H1015   1.083       .  S
C1006      H1016   1.081       .  S
C1017      C1018   1.406       .  A
C1017      C1022   1.407       .  A
C1018      C1019   1.402       .  A
C1018      H1031   1.083       .  S
C1019      C1020   1.405       .  A
C1019      H1032   1.083       .  S
C1020      C1021   1.407       .  A
C1020      C1023   1.490       .  S
C1021      C1022   1.397       .  A
C1021      H1033   1.082       .  S
C1022      H1034   1.083       .  S
C1023      C1024   1.347       .  D
C1023      H1035   1.086       .  S
C1024      C1025   1.486       .  S
C1024      H1036   1.086       .  S
C1025      C1026   1.401       .  A
C1025      C1030   1.409       .  A
C1026      C1027   1.394       .  A
C1026      H1037   1.084       .  S
C1027      C1028   1.406       .  A
C1027      H1038   1.083       .  S
C1028      C1029   1.407       .  A
C1029      C1030   1.405       .  A
C1029      H1039   1.083       .  S
C1030      H1040   1.082       .  S
C1041      C1042   1.405       .  A
C1041      C1046   1.409       .  A
C1042      C1043   1.393       .  A
C1042      H1055   1.083       .  S
C1043      C1044   1.402       .  A
C1043      H1056   1.084       .  S
C1044      C1045   1.410       .  A
C1044      C1047   1.490       .  S
C1045      C1046   1.408       .  A
C1045      H1057   1.082       .  S
C1046      H1058   1.083       .  S
C1047      C1048   1.349       .  D
C1047      H1059   1.086       .  S
C1048      C1049   1.494       .  S
C1048      H1060   1.085       .  S
C1049      C1050   1.406       .  A
C1049      C1054   1.406       .  A
C1050      C1051   1.406       .  A
C1050      H1061   1.083       .  S
C1051      C1052   1.407       .  A
C1051      H1062   1.083       .  S
C1052      C1053   1.407       .  A
C1053      C1054   1.395       .  A
C1053      H1063   1.083       .  S
C1054      H1064   1.082       .  S
C1065      C1066   1.407       .  A
C1065      C1070   1.407       .  A
C1066      C1067   1.401       .  A
C1066      H1079   1.083       .  S
C1067      C1068   1.404       .  A
C1067      H1080   1.083       .  S
C1068      C1069   1.407       .  A
C1068      C1071   1.489       .  S
C1069      C1070   1.401       .  A
C1069      H1081   1.082       .  S
C1070      H1082   1.083       .  S
C1071      C1072   1.347       .  D
C1071      H1083   1.086       .  S
C1072      C1073   1.488       .  S
C1072      H1084   1.086       .  S
C1073      C1074   1.403       .  A
C1073      C1078   1.408       .  A
C1074      C1075   1.400       .  A
C1074      H1085   1.083       .  S
C1075      C1076   1.405       .  A
C1075      H1086   1.083       .  S
C1076      C1077   1.406       .  A
C1077      C1078   1.402       .  A
C1077      H1087   1.083       .  S
C1078      H1088   1.082       .  S
C1089      C1090   1.406       .  A
C1089      C1094   1.406       .  A
C1090      C1091   1.399       .  A
C1090      H1103   1.083       .  S
C1091      C1092   1.403       .  A
C1091      H1104   1.083       .  S
C1092      C1093   1.409       .  A
C1092      C1095   1.489       .  S
C1093      C1094   1.400       .  A
C1093      H1105   1.081       .  S
C1094      H1106   1.083       .  S
C1095      C1096   1.347       .  D
C1095      H1107   1.085       .  S
C1096      C1097   1.488       .  S
C1096      H1108   1.085       .  S
C1097      C1098   1.402       .  A
C1097      C1102   1.410       .  A
C1098      C1099   1.396       .  A
C1098      H1109   1.084       .  S
C1099      C1100   1.406       .  A
C1099      H1110   1.083       .  S
C1100      C1101   1.406       .  A
C1101      C1102   1.402       .  A
C1101      H1111   1.083       .  S
C1102      H1112   1.081       .  S
C1113      C1114   1.406       .  A
C1113      C1118   1.404       .  A
C1114      C1115   1.400       .  A
C1114      H1127   1.083       .  S
C1115      C1116   1.402       .  A
C1115      H1128   1.083       .  S
C1116      C1117   1.407       .  A
C1116      C1119   1.484       .  S
C1117      C1118   1.398       .  A
C1117      H1129   1.083       .  S
C1118      H1130   1.083       .  S
C1119      C1120   1.345       .  D
C1119      H1131   1.086       .  S
C1120      C1121   1.483       .  S
C1120      H1132   1.087       .  S
C1121      C1122   1.401       .  A
C1121      C1126   1.407       .  A
C1122      C1123   1.395       .  A
C1122      H1133   1.084       .  S
C1123      C1124   1.406       .  A
C1123      H1134   1.083       .  S
C1124      C1125   1.407       .  A
C1125      C1126   1.403       .  A
C1125      H1135   1.083       .  S
C1126      H1136   1.082       .  S
C1137      C1138   1.405       .  A
C1137      C1142   1.407       .  A
C1138      C1139   1.399       .  A
C1138      H1151   1.083       .  S
C1139      C1140   1.404       .  A
C1139      H1152   1.083       .  S
C1140      C1141   1.408       .  A
C1140      C1143   1.488       .  S
C1141      C1142   1.399       .  A
C1141      H1153   1.081       .  S
C1142      H1154   1.083       .  S
C1143      C1144   1.349       .  D
C1143      H1155   1.086       .  S
C1144      C1145   1.488       .  S
C1144      H1156   1.085       .  S
C1145      C1146   1.405       .  A
C1145      C1150   1.407       .  A
C1146      C1147   1.402       .  A
C1146      H1157   1.083       .  S
C1147      C1148   1.405       .  A
C1147      H1158   1.083       .  S
C1148      C1149   1.406       .  A
C1149      C1150   1.396       .  A
C1149      H1159   1.083       .  S
C1150      H1160   1.082       .  S
C1161      C1162   1.406       .  A
C1161      C1166   1.407       .  A
C1162      C1163   1.392       .  A
C1162      H1175   1.083       .  S
C1163      C1164   1.401       .  A
C1163      H1176   1.084       .  S
C1164      C1165   1.410       .  A
C1164      C1167   1.487       .  S
C1165      C1166   1.406       .  A
C1165      H1177   1.082       .  S
C1166      H1178   1.083       .  S
C1167      C1168   1.346       .  D
C1167      H1179   1.085       .  S
C1168      C1169   1.490       .  S
C1168      H1180   1.085       .  S
C1169      C1170   1.402       .  A
C1169      C1174   1.409       .  A
C1170      C1171   1.399       .  A
C1170      H1181   1.083       .  S
C1171      C1172   1.408       .  A
C1171      H1182   1.083       .  S
C1172      C1173   1.405       .  A
C1173      C1174   1.400       .  A
C1173      H1183   1.083       .  S
C1174      H1184   1.082       .  S
C1185      C1186   1.406       .  A
C1185      C1190   1.406       .  A
C1186      C1187   1.399       .  A
C1186      H1199   1.083       .  S
C1187      C1188   1.404       .  A
C1187      H1200   1.083       .  S
C1188      C1189   1.408       .  A
C1188      C1191   1.490       .  S
C1189      C1190   1.400       .  A
C1189      H1201   1.081       .  S
C1190      H1202   1.083       .  S
C1191      C1192   1.349       .  D
C1191      H1203   1.086       .  S
C1192      C1193   1.489       .  S
C1192      H1204   1.085       .  S
C1193      C1194   1.405       .  A
C1193      C1198   1.407       .  A
C1194      C1195   1.401       .  A
C1194      H1205   1.083       .  S
C1195      C1196   1.405       .  A
C1195      H1206   1.083       .  S
C1196      C1197   1.407       .  A
C1197      C1198   1.398       .  A
C1197      H1207   1.083       .  S
C1198      H1208   1.082       .  S
C1209      C1210   1.405   1_554  A
C1209      C1214   1.407       .  A
C1210      C1211   1.399       .  A
C1210      H1223   1.083       .  S
C1211      C1212   1.403   1_556  A
C1211      H1224   1.083       .  S
C1212      C1213   1.408       .  A
C1212      C1215   1.489   1_554  S
C1213      C1214   1.404       .  A
C1213      H1225   1.082       .  S
C1214      H1226   1.083       .  S
C1215      C1216   1.348   1_556  D
C1215      H1227   1.086       .  S
C1216      C1217   1.489       .  S
C1216      H1228   1.086       .  S
C1217      C1218   1.403       .  A
C1217      C1222   1.408   1_554  A
C1218      C1219   1.400       .  A
C1218      H1229   1.083       .  S
C1219      C1220   1.407   1_554  A
C1219      H1230   1.083       .  S
C1220      C1221   1.406       .  A
C1221      C1222   1.403       .  A
C1221      H1231   1.083       .  S
C1222      H1232   1.082       .  S
C1233      C1234   1.401       .  A
C1233      C1238   1.402       .  A
C1234      C1235   1.396       .  A
C1234      H1247   1.084       .  S
C1235      C1236   1.404       .  A
C1235      H1248   1.083       .  S
C1236      C1237   1.408       .  A
C1236      C1239   1.485       .  S
C1237      C1238   1.401       .  A
C1237      H1249   1.082       .  S
C1238      H1250   1.083       .  S
C1239      C1240   1.348       .  D
C1239      H1251   1.086       .  S
C1240      C1241   1.486       .  S
C1240      H1252   1.086       .  S
C1241      C1242   1.404       .  A
C1241      C1246   1.408       .  A
C1242      C1243   1.398       .  A
C1242      H1253   1.083       .  S
C1243      C1244   1.401       .  A
C1243      H1254   1.084       .  S
C1244      C1245   1.402       .  A
C1245      C1246   1.401       .  A
C1245      H1255   1.083       .  S
C1246      H1256   1.082       .  S
C1257      C1258   1.405       .  A
C1257      C1262   1.407       .  A
C1258      C1259   1.396       .  A
C1258      H1271   1.083       .  S
C1259      C1260   1.403       .  A
C1259      H1272   1.084       .  S
C1260      C1261   1.409       .  A
C1260      C1263   1.488       .  S
C1261      C1262   1.402       .  A
C1261      H1273   1.081       .  S
C1262      H1274   1.083       .  S
C1263      C1264   1.348       .  D
C1263      H1275   1.085       .  S
C1264      C1265   1.489       .  S
C1264      H1276   1.085       .  S
C1265      C1266   1.404       .  A
C1265      C1270   1.408       .  A
C1266      C1267   1.400       .  A
C1266      H1277   1.083       .  S
C1267      C1268   1.407       .  A
C1267      H1278   1.083       .  S
C1268      C1269   1.405       .  A
C1269      C1270   1.398       .  A
C1269      H1279   1.083       .  S
C1270      H1280   1.081       .  S
C1281      C1282   1.406       .  A
C1281      C1286   1.406       .  A
C1282      C1283   1.396       .  A
C1282      H1295   1.083       .  S
C1283      C1284   1.403       .  A
C1283      H1296   1.083       .  S
C1284      C1285   1.408       .  A
C1284      C1287   1.487       .  S
C1285      C1286   1.401       .  A
C1285      H1297   1.081       .  S
C1286      H1298   1.083       .  S
C1287      C1288   1.348       .  D
C1287      H1299   1.086       .  S
C1288      C1289   1.486       .  S
C1288      H1300   1.085       .  S
C1289      C1290   1.403       .  A
C1289      C1294   1.407       .  A
C1290      C1291   1.400       .  A
C1290      H1301   1.083       .  S
C1291      C1292   1.406       .  A
C1291      H1302   1.083       .  S
C1292      C1293   1.406       .  A
C1293      C1294   1.397       .  A
C1293      H1303   1.083       .  S
C1294      H1304   1.082       .  S
C1305      C1306   1.406       .  A
C1305      C1310   1.404       .  A
C1306      C1307   1.398       .  A
C1306      H1319   1.083       .  S
C1307      C1308   1.403       .  A
C1307      H1320   1.083       .  S
C1308      C1309   1.408       .  A
C1308      C1311   1.486       .  S
C1309      C1310   1.397       .  A
C1309      H1321   1.081       .  S
C1310      H1322   1.083       .  S
C1311      C1312   1.347       .  D
C1311      H1323   1.085       .  S
C1312      C1313   1.485       .  S
C1312      H1324   1.085       .  S
C1313      C1314   1.402       .  A
C1313      C1318   1.408       .  A
C1314      C1315   1.395       .  A
C1314      H1325   1.084       .  S
C1315      C1316   1.404       .  A
C1315      H1326   1.083       .  S
C1316      C1317   1.406       .  A
C1317      C1318   1.400       .  A
C1317      H1327   1.083       .  S
C1318      H1328   1.081       .  S
C1329      C1330   1.402       .  A
C1329      C1334   1.402       .  A
C1330      C1331   1.403       .  A
C1330      H1343   1.083       .  S
C1331      C1332   1.407       .  A
C1331      H1344   1.083       .  S
C1332      C1333   1.407       .  A
C1332      C1335   1.487       .  S
C1333      C1334   1.395       .  A
C1333      H1345   1.082       .  S
C1334      H1346   1.084   1_556  S
C1335      C1336   1.348       .  D
C1335      H1347   1.086       .  S
C1336      C1337   1.486       .  S
C1336      H1348   1.086       .  S
C1337      C1338   1.406       .  A
C1337      C1342   1.406       .  A
C1338      C1339   1.403       .  A
C1338      H1349   1.083       .  S
C1339      C1340   1.404       .  A
C1339      H1350   1.083       .  S
C1340      C1341   1.404       .  A
C1341      C1342   1.394       .  A
C1341      H1351   1.083       .  S
C1342      H1352   1.082       .  S
C1353      C1354   1.407       .  A
C1353      C1358   1.407       .  A
C1354      C1355   1.402       .  A
C1354      H1367   1.083       .  S
C1355      C1356   1.404       .  A
C1355      H1368   1.083       .  S
C1356      C1357   1.406       .  A
C1356      C1359   1.487       .  S
C1357      C1358   1.396       .  A
C1357      H1369   1.083       .  S
C1358      H1370   1.083       .  S
C1359      C1360   1.347       .  D
C1359      H1371   1.086       .  S
C1360      C1361   1.485       .  S
C1360      H1372   1.087       .  S
C1361      C1362   1.401   1_545  A
C1361      C1366   1.408   1_545  A
C1362      C1363   1.395       .  A
C1362      H1373   1.084       .  S
C1363      C1364   1.407       .  A
C1363      H1374   1.083       .  S
C1364      C1365   1.407       .  A
C1365      C1366   1.404       .  A
C1365      H1375   1.083       .  S
C1366      H1376   1.082       .  S
C1377      C1378   1.405       .  A
C1377      C1382   1.405       .  A
C1378      C1379   1.399       .  A
C1378      H1391   1.083       .  S
C1379      C1380   1.402       .  A
C1379      H1392   1.083       .  S
C1380      C1381   1.405       .  A
C1380      C1383   1.481       .  S
C1381      C1382   1.398       .  A
C1381      H1393   1.083       .  S
C1382      H1394   1.083       .  S
C1383      C1384   1.345       .  D
C1383      H1395   1.086       .  S
C1384      C1385   1.481       .  S
C1384      H1396   1.087       .  S
C1385      C1386   1.402       .  A
C1385      C1390   1.406       .  A
C1386      C1387   1.397       .  A
C1386      H1397   1.083       .  S
C1387      C1388   1.405       .  A
C1387      H1398   1.083       .  S
C1388      C1389   1.405       .  A
C1389      C1390   1.399       .  A
C1389      H1399   1.083       .  S
C1390      H1400   1.082       .  S
C1401      C1402   1.403       .  A
C1401      C1406   1.402       .  A
C1402      C1403   1.404       .  A
C1402      H1415   1.083       .  S
C1403      C1404   1.407       .  A
C1403      H1416   1.083       .  S
C1404      C1405   1.406       .  A
C1404      C1407   1.484       .  S
C1405      C1406   1.393       .  A
C1405      H1417   1.082       .  S
C1406      H1418   1.084       .  S
C1407      C1408   1.348       .  D
C1407      H1419   1.086       .  S
C1408      C1409   1.485       .  S
C1408      H1420   1.086       .  S
C1409      C1410   1.407       .  A
C1409      C1414   1.406       .  A
C1410      C1411   1.403       .  A
C1410      H1421   1.083       .  S
C1411      C1412   1.402       .  A
C1411      H1422   1.083       .  S
C1412      C1413   1.403       .  A
C1413      C1414   1.394       .  A
C1413      H1423   1.084       .  S
C1414      H1424   1.082       .  S
C1425      C1426   1.406       .  A
C1425      C1430   1.406       .  A
C1426      C1427   1.400       .  A
C1426      H1439   1.083       .  S
C1427      C1428   1.404       .  A
C1427      H1440   1.083       .  S
C1428      C1429   1.407       .  A
C1428      C1431   1.487       .  S
C1429      C1430   1.398       .  A
C1429      H1441   1.082       .  S
C1430      H1442   1.083       .  S
C1431      C1432   1.348       .  D
C1431      H1443   1.085       .  S
C1432      C1433   1.488       .  S
C1432      H1444   1.086       .  S
C1433      C1434   1.405   1_554  A
C1433      C1438   1.407   1_554  A
C1434      C1435   1.401       .  A
C1434      H1445   1.083       .  S
C1435      C1436   1.405       .  A
C1435      H1446   1.083       .  S
C1436      C1437   1.407       .  A
C1437      C1438   1.398       .  A
C1437      H1447   1.083       .  S
C1438      H1448   1.081   1_556  S
C1449      C1450   1.406       .  A
C1449      C1454   1.407       .  A
C1450      C1451   1.393       .  A
C1450      H1463   1.082       .  S
C1451      C1452   1.401       .  A
C1451      H1464   1.084       .  S
C1452      C1453   1.410       .  A
C1452      C1455   1.487       .  S
C1453      C1454   1.405       .  A
C1453      H1465   1.082       .  S
C1454      H1466   1.083       .  S
C1455      C1456   1.347       .  D
C1455      H1467   1.086       .  S
C1456      C1457   1.489       .  S
C1456      H1468   1.085       .  S
C1457      C1458   1.403       .  A
C1457      C1462   1.409       .  A
C1458      C1459   1.399       .  A
C1458      H1469   1.083       .  S
C1459      C1460   1.407       .  A
C1459      H1470   1.083       .  S
C1460      C1461   1.405       .  A
C1461      C1462   1.399       .  A
C1461      H1471   1.083       .  S
C1462      H1472   1.082       .  S
C1473      C1474   1.406       .  A
C1473      C1478   1.407       .  A
C1474      C1475   1.399       .  A
C1474      H1487   1.083       .  S
C1475      C1476   1.404       .  A
C1475      H1488   1.083       .  S
C1476      C1477   1.408       .  A
C1476      C1479   1.490       .  S
C1477      C1478   1.400       .  A
C1477      H1489   1.081       .  S
C1478      H1490   1.083       .  S
C1479      C1480   1.348       .  D
C1479      H1491   1.086       .  S
C1480      C1481   1.489       .  S
C1480      H1492   1.085       .  S
C1481      C1482   1.403       .  A
C1481      C1486   1.408       .  A
C1482      C1483   1.399       .  A
C1482      H1493   1.083       .  S
C1483      C1484   1.406       .  A
C1483      H1494   1.083       .  S
C1484      C1485   1.407       .  A
C1485      C1486   1.401       .  A
C1485      H1495   1.083       .  S
C1486      H1496   1.082       .  S
C1497      C1498   1.406       .  A
C1497      C1502   1.406       .  A
C1498      C1499   1.397       .  A
C1498      H1511   1.083       .  S
C1499      C1500   1.402       .  A
C1499      H1512   1.083       .  S
C1500      C1501   1.408       .  A
C1500      C1503   1.486   1_554  S
C1501      C1502   1.400       .  A
C1501      H1513   1.082       .  S
C1502      H1514   1.083       .  S
C1503      C1504   1.347       .  D
C1503      H1515   1.085       .  S
C1504      C1505   1.487       .  S
C1504      H1516   1.086       .  S
C1505      C1506   1.403       .  A
C1505      C1510   1.409       .  A
C1506      C1507   1.396       .  A
C1506      H1517   1.083       .  S
C1507      C1508   1.406       .  A
C1507      H1518   1.083       .  S
C1508      C1509   1.406       .  A
C1509      C1510   1.401       .  A
C1509      H1519   1.083       .  S
C1510      H1520   1.081       .  S
C1521      C1522   1.405       .  A
C1521      C1526   1.407       .  A
C1522      C1523   1.399       .  A
C1522      H1535   1.083       .  S
C1523      C1524   1.404       .  A
C1523      H1536   1.083       .  S
C1524      C1525   1.407       .  A
C1524      C1527   1.488       .  S
C1525      C1526   1.399       .  A
C1525      H1537   1.081       .  S
C1526      H1538   1.083       .  S
C1527      C1528   1.348       .  D
C1527      H1539   1.086       .  S
C1528      C1529   1.487       .  S
C1528      H1540   1.085       .  S
C1529      C1530   1.404       .  A
C1529      C1534   1.407       .  A
C1530      C1531   1.401       .  A
C1530      H1541   1.083       .  S
C1531      C1532   1.406       .  A
C1531      H1542   1.083       .  S
C1532      C1533   1.406       .  A
C1533      C1534   1.397       .  A
C1533      H1543   1.083       .  S
C1534      H1544   1.082       .  S
C1545      C1546   1.408       .  A
C1545      C1550   1.407       .  A
C1546      C1547   1.405       .  A
C1546      H1559   1.083       .  S
C1547      C1548   1.405       .  A
C1547      H1560   1.083       .  S
C1548      C1549   1.407       .  A
C1548      C1551   1.493       .  S
C1549      C1550   1.399       .  A
C1549      H1561   1.082       .  S
C1550      H1562   1.083       .  S
C1551      C1552   1.349       .  D
C1551      H1563   1.086       .  S
C1552      C1553   1.490   1_545  S
C1552      H1564   1.087       .  S
C1553      C1554   1.402       .  A
C1553      C1558   1.410       .  A
C1554      C1555   1.395       .  A
C1554      H1565   1.084       .  S
C1555      C1556   1.407       .  A
C1555      H1566   1.083       .  S
C1556      C1557   1.409       .  A
C1557      C1558   1.408       .  A
C1557      H1567   1.083       .  S
C1558      H1568   1.082       .  S
C1569      C1570   1.406       .  A
C1569      C1574   1.408       .  A
C1570      C1571   1.395       .  A
C1570      H1583   1.083       .  S
C1571      C1572   1.403       .  A
C1571      H1584   1.084       .  S
C1572      C1573   1.411       .  A
C1572      C1575   1.493       .  S
C1573      C1574   1.406       .  A
C1573      H1585   1.081       .  S
C1574      H1586   1.083       .  S
C1575      C1576   1.349       .  D
C1575      H1587   1.085       .  S
C1576      C1577   1.494       .  S
C1576      H1588   1.084       .  S
C1577      C1578   1.405       .  A
C1577      C1582   1.409       .  A
C1578      C1579   1.402       .  A
C1578      H1589   1.083       .  S
C1579      C1580   1.407       .  A
C1579      H1590   1.083       .  S
C1580      C1581   1.405       .  A
C1581      C1582   1.399       .  A
C1581      H1591   1.083       .  S
C1582      H1592   1.081       .  S
C1593      C1594   1.402       .  A
C1593      C1598   1.404       .  A
C1594      C1595   1.397       .  A
C1594      H1607   1.084       .  S
C1595      C1596   1.403       .  A
C1595      H1608   1.083       .  S
C1596      C1597   1.408       .  A
C1596      C1599   1.484       .  S
C1597      C1598   1.403       .  A
C1597      H1609   1.083       .  S
C1598      H1610   1.083       .  S
C1599      C1600   1.346       .  D
C1599      H1611   1.087       .  S
C1600      C1601   1.483       .  S
C1600      H1612   1.087       .  S
C1601      C1602   1.401       .  A
C1601      C1606   1.408       .  A
C1602      C1603   1.395       .  A
C1602      H1613   1.083       .  S
C1603      C1604   1.403       .  A
C1603      H1614   1.083       .  S
C1604      C1605   1.404       .  A
C1605      C1606   1.404       .  A
C1605      H1615   1.083       .  S
C1606      H1616   1.083       .  S
C1617      C1618   1.407       .  A
C1617      C1622   1.408       .  A
C1618      C1619   1.399       .  A
C1618      H1631   1.083       .  S
C1619      C1620   1.404       .  A
C1619      H1632   1.083       .  S
C1620      C1621   1.409       .  A
C1620      C1623   1.494       .  S
C1621      C1622   1.406       .  A
C1621      H1633   1.082       .  S
C1622      H1634   1.083       .  S
C1623      C1624   1.350       .  D
C1623      H1635   1.086       .  S
C1624      C1625   1.494       .  S
C1624      H1636   1.085       .  S
C1625      C1626   1.405       .  A
C1625      C1630   1.408       .  A
C1626      C1627   1.404       .  A
C1626      H1637   1.083       .  S
C1627      C1628   1.408       .  A
C1627      H1638   1.083       .  S
C1628      C1629   1.408       .  A
C1629      C1630   1.402       .  A
C1629      H1639   1.083       .  S
C1630      H1640   1.082       .  S
C1641      C1642   1.405       .  A
C1641      C1646   1.405       .  A
C1642      C1643   1.397       .  A
C1642      H1655   1.083       .  S
C1643      C1644   1.402       .  A
C1643      H1656   1.083       .  S
C1644      C1645   1.407       .  A
C1644      C1647   1.483       .  S
C1645      C1646   1.401       .  A
C1645      H1657   1.082       .  S
C1646      H1658   1.083       .  S
C1647      C1648   1.345       .  D
C1647      H1659   1.086       .  S
C1648      C1649   1.484       .  S
C1648      H1660   1.087       .  S
C1649      C1650   1.402       .  A
C1649      C1654   1.407       .  A
C1650      C1651   1.398       .  A
C1650      H1661   1.083       .  S
C1651      C1652   1.406       .  A
C1651      H1662   1.083       .  S
C1652      C1653   1.406       .  A
C1653      C1654   1.399       .  A
C1653      H1663   1.083       .  S
C1654      H1664   1.082       .  S
C1665      C1666   1.407       .  A
C1665      C1670   1.407       .  A
C1666      C1667   1.396       .  A
C1666      H1679   1.083       .  S
C1667      C1668   1.402       .  A
C1667      H1680   1.084       .  S
C1668      C1669   1.409       .  A
C1668      C1671   1.489       .  S
C1669      C1670   1.404       .  A
C1669      H1681   1.082       .  S
C1670      H1682   1.083       .  S
C1671      C1672   1.348       .  D
C1671      H1683   1.085       .  S
C1672      C1673   1.491       .  S
C1672      H1684   1.086       .  S
C1673      C1674   1.404       .  A
C1673      C1678   1.408       .  A
C1674      C1675   1.401       .  A
C1674      H1685   1.083       .  S
C1675      C1676   1.406       .  A
C1675      H1686   1.083       .  S
C1676      C1677   1.406       .  A
C1677      C1678   1.400       .  A
C1677      H1687   1.083       .  S
C1678      H1688   1.081       .  S
C1689      C1690   1.406   1_655  A
C1689      C1694   1.408       .  A
C1690      C1691   1.403       .  A
C1690      H1703   1.083       .  S
C1691      C1692   1.405       .  A
C1691      H1704   1.083       .  S
C1692      C1693   1.407   1_455  A
C1692      C1695   1.491       .  S
C1693      C1694   1.398       .  A
C1693      H1705   1.082       .  S
C1694      H1706   1.083       .  S
C1695      C1696   1.349       .  D
C1695      H1707   1.085       .  S
C1696      C1697   1.491       .  S
C1696      H1708   1.086   1_455  S
C1697      C1698   1.404       .  A
C1697      C1702   1.408       .  A
C1698      C1699   1.399       .  A
C1698      H1709   1.083   1_455  S
C1699      C1700   1.406       .  A
C1699      H1710   1.083       .  S
C1700      C1701   1.408       .  A
C1701      C1702   1.403       .  A
C1701      H1711   1.083       .  S
C1702      H1712   1.082       .  S
C1713      C1714   1.407       .  A
C1713      C1718   1.406       .  A
C1714      C1715   1.399       .  A
C1714      H1727   1.083       .  S
C1715      C1716   1.403       .  A
C1715      H1728   1.083       .  S
C1716      C1717   1.409       .  A
C1716      C1719   1.492   1_554  S
C1717      C1718   1.402       .  A
C1717      H1729   1.082   1_655  S
C1718      H1730   1.083       .  S
C1719      C1720   1.348       .  D
C1719      H1731   1.085       .  S
C1720      C1721   1.491   1_655  S
C1720      H1732   1.086   1_655  S
C1721      C1722   1.401       .  A
C1721      C1726   1.411   1_455  A
C1722      C1723   1.395       .  A
C1722      H1733   1.084       .  S
C1723      C1724   1.406       .  A
C1723      H1734   1.081       .  S
C1724      C1725   1.407   1_455  A
C1725      C1726   1.406       .  A
C1725      H1735   1.083       .  S
C1726      H1736   1.081       .  S
C1737      C1738   1.404   1_455  A
C1737      C1742   1.405       .  A
C1738      C1739   1.394       .  A
C1738      H1751   1.083       .  S
C1739      C1740   1.404   1_655  A
C1739      H1752   1.084       .  S
C1740      C1741   1.410       .  A
C1740      C1743   1.488   1_556  S
C1741      C1742   1.401       .  A
C1741      H1753   1.080       .  S
C1742      H1754   1.083       .  S
C1743      C1744   1.348       .  D
C1743      H1755   1.086   1_455  S
C1744      C1745   1.485       .  S
C1744      H1756   1.083       .  S
C1745      C1746   1.404       .  A
C1745      C1750   1.406   1_455  A
C1746      C1747   1.401       .  A
C1746      H1757   1.083       .  S
C1747      C1748   1.407   1_455  A
C1747      H1758   1.083       .  S
C1748      C1749   1.405       .  A
C1749      C1750   1.394       .  A
C1749      H1759   1.083       .  S
C1750      H1760   1.082       .  S
C1761      C1762   1.405       .  A
C1761      C1766   1.405       .  A
C1762      C1763   1.395       .  A
C1762      H1775   1.083       .  S
C1763      C1764   1.402       .  A
C1763      H1776   1.084       .  S
C1764      C1765   1.408       .  A
C1764      C1767   1.484       .  S
C1765      C1766   1.401       .  A
C1765      H1777   1.082       .  S
C1766      H1778   1.083   1_655  S
C1767      C1768   1.347       .  D
C1767      H1779   1.086       .  S
C1768      C1769   1.485       .  S
C1768      H1780   1.086       .  S
C1769      C1770   1.403       .  A
C1769      C1774   1.406       .  A
C1770      C1771   1.399       .  A
C1770      H1781   1.083   1_655  S
C1771      C1772   1.406       .  A
C1771      H1782   1.083       .  S
C1772      C1773   1.406       .  A
C1773      C1774   1.397       .  A
C1773      H1783   1.083       .  S
C1774      H1784   1.082       .  S
C1785      C1786   1.406       .  A
C1785      C1790   1.408       .  A
C1786      C1787   1.393       .  A
C1786      H1799   1.083       .  S
C1787      C1788   1.403       .  A
C1787      H1800   1.084       .  S
C1788      C1789   1.412       .  A
C1788      C1791   1.493       .  S
C1789      C1790   1.408       .  A
C1789      H1801   1.080       .  S
C1790      H1802   1.083       .  S
C1791      C1792   1.350       .  D
C1791      H1803   1.086       .  S
C1792      C1793   1.494       .  S
C1792      H1804   1.084       .  S
C1793      C1794   1.405       .  A
C1793      C1798   1.408       .  A
C1794      C1795   1.404       .  A
C1794      H1805   1.083       .  S
C1795      C1796   1.408       .  A
C1795      H1806   1.083       .  S
C1796      C1797   1.406       .  A
C1797      C1798   1.398       .  A
C1797      H1807   1.083       .  S
C1798      H1808   1.082       .  S
C1809      C1810   1.407       .  A
C1809      C1814   1.407       .  A
C1810      C1811   1.400       .  A
C1810      H1823   1.083       .  S
C1811      C1812   1.403       .  A
C1811      H1824   1.083       .  S
C1812      C1813   1.408       .  A
C1812      C1815   1.491       .  S
C1813      C1814   1.404       .  A
C1813      H1825   1.082       .  S
C1814      H1826   1.083       .  S
C1815      C1816   1.348       .  D
C1815      H1827   1.086       .  S
C1816      C1817   1.491       .  S
C1816      H1828   1.086       .  S
C1817      C1818   1.404       .  A
C1817      C1822   1.408       .  A
C1818      C1819   1.401       .  A
C1818      H1829   1.083       .  S
C1819      C1820   1.407       .  A
C1819      H1830   1.083       .  S
C1820      C1821   1.407       .  A
C1821      C1822   1.403       .  A
C1821      H1831   1.083       .  S
C1822      H1832   1.082       .  S
C1833      C1834   1.405       .  A
C1833      C1838   1.406       .  A
C1834      C1835   1.397       .  A
C1834      H1847   1.083       .  S
C1835      C1836   1.403       .  A
C1835      H1848   1.083       .  S
C1836      C1837   1.408       .  A
C1836      C1839   1.486       .  S
C1837      C1838   1.401       .  A
C1837      H1849   1.082       .  S
C1838      H1850   1.083       .  S
C1839      C1840   1.348       .  D
C1839      H1851   1.085       .  S
C1840      C1841   1.487       .  S
C1840      H1852   1.086       .  S
C1841      C1842   1.403       .  A
C1841      C1846   1.408       .  A
C1842      C1843   1.397       .  A
C1842      H1853   1.083       .  S
C1843      C1844   1.405       .  A
C1843      H1854   1.083       .  S
C1844      C1845   1.406       .  A
C1845      C1846   1.400       .  A
C1845      H1855   1.083       .  S
C1846      H1856   1.082       .  S
C1857      C1858   1.403       .  A
C1857      C1862   1.400       .  A
C1858      C1859   1.401       .  A
C1858      H1871   1.083       .  S
C1859      C1860   1.403       .  A
C1859      H1872   1.083       .  S
C1860      C1861   1.406       .  A
C1860      C1863   1.479       .  S
C1861      C1862   1.392       .  A
C1861      H1873   1.083       .  S
C1862      H1874   1.084       .  S
C1863      C1864   1.342       .  D
C1863      H1875   1.086       .  S
C1864      C1865   1.479       .  S
C1864      H1876   1.087       .  S
C1865      C1866   1.400       .  A
C1865      C1870   1.407       .  A
C1866      C1867   1.394       .  A
C1866      H1877   1.084       .  S
C1867      C1868   1.406       .  A
C1867      H1878   1.083       .  S
C1868      C1869   1.406       .  A
C1869      C1870   1.399       .  A
C1869      H1879   1.083       .  S
C1870      H1880   1.082       .  S
C1881      C1882   1.408       .  A
C1881      C1886   1.408       .  A
C1882      C1883   1.395       .  A
C1882      H1895   1.083       .  S
C1883      C1884   1.401       .  A
C1883      H1896   1.084       .  S
C1884      C1885   1.411       .  A
C1884      C1887   1.492       .  S
C1885      C1886   1.409       .  A
C1885      H1897   1.082       .  S
C1886      H1898   1.083       .  S
C1887      C1888   1.349       .  D
C1887      H1899   1.086       .  S
C1888      C1889   1.495       .  S
C1888      H1900   1.086       .  S
C1889      C1890   1.405       .  A
C1889      C1894   1.408       .  A
C1890      C1891   1.404       .  A
C1890      H1901   1.083       .  S
C1891      C1892   1.407       .  A
C1891      H1902   1.083       .  S
C1892      C1893   1.406       .  A
C1893      C1894   1.400       .  A
C1893      H1903   1.083       .  S
C1894      H1904   1.082       .  S
C1905      C1906   1.406       .  A
C1905      C1910   1.405       .  A
C1906      C1907   1.396       .  A
C1906      H1919   1.083       .  S
C1907      C1908   1.403       .  A
C1907      H1920   1.084       .  S
C1908      C1909   1.412       .  A
C1908      C1911   1.494       .  S
C1909      C1910   1.403       .  A
C1909      H1921   1.080       .  S
C1910      H1922   1.083       .  S
C1911      C1912   1.349       .  D
C1911      H1923   1.085       .  S
C1912      C1913   1.491       .  S
C1912      H1924   1.083       .  S
C1913      C1914   1.403       .  A
C1913      C1918   1.410       .  A
C1914      C1915   1.398       .  A
C1914      H1925   1.083       .  S
C1915      C1916   1.406       .  A
C1915      H1926   1.083       .  S
C1916      C1917   1.406       .  A
C1917      C1918   1.401       .  A
C1917      H1927   1.083       .  S
C1918      H1928   1.081       .  S
C1929      C1930   1.401       .  A
C1929      C1934   1.402       .  A
C1930      C1931   1.397       .  A
C1930      H1943   1.083       .  S
C1931      C1932   1.403       .  A
C1931      H1944   1.083       .  S
C1932      C1933   1.408       .  A
C1932      C1935   1.485       .  S
C1933      C1934   1.402       .  A
C1933      H1945   1.082       .  S
C1934      H1946   1.083       .  S
C1935      C1936   1.348       .  D
C1935      H1947   1.086       .  S
C1936      C1937   1.487       .  S
C1936      H1948   1.086       .  S
C1937      C1938   1.404       .  A
C1937      C1942   1.406       .  A
C1938      C1939   1.399       .  A
C1938      H1949   1.083       .  S
C1939      C1940   1.406       .  A
C1939      H1950   1.083       .  S
C1940      C1941   1.407       .  A
C1941      C1942   1.400       .  A
C1941      H1951   1.083       .  S
C1942      H1952   1.082       .  S
C1953      C1954   1.407       .  A
C1953      C1958   1.406       .  A
C1954      C1955   1.401       .  A
C1954      H1967   1.083       .  S
C1955      C1956   1.403       .  A
C1955      H1968   1.083       .  S
C1956      C1957   1.408       .  A
C1956      C1959   1.490       .  S
C1957      C1958   1.400       .  A
C1957      H1969   1.082       .  S
C1958      H1970   1.083       .  S
C1959      C1960   1.346       .  D
C1959      H1971   1.086       .  S
C1960      C1961   1.488       .  S
C1960      H1972   1.086       .  S
C1961      C1962   1.401       .  A
C1961      C1966   1.409       .  A
C1962      C1963   1.395       .  A
C1962      H1973   1.084       .  S
C1963      C1964   1.407       .  A
C1963      H1974   1.083       .  S
C1964      C1965   1.407       .  A
C1965      C1966   1.406       .  A
C1965      H1975   1.083       .  S
C1966      H1976   1.082       .  S
C1977      C1978   1.405       .  A
C1977      C1982   1.407       .  A
C1978      C1979   1.404       .  A
C1978      H1991   1.083       .  S
C1979      C1980   1.406       .  A
C1979      H1992   1.083       .  S
C1980      C1981   1.407       .  A
C1980      C1983   1.493       .  S
C1981      C1982   1.403       .  A
C1981      H1993   1.083       .  S
C1982      H1994   1.083       .  S
C1983      C1984   1.350       .  D
C1983      H1995   1.086       .  S
C1984      C1985   1.494       .  S
C1984      H1996   1.086       .  S
C1985      C1986   1.407       .  A
C1985      C1990   1.407       .  A
C1986      C1987   1.405       .  A
C1986      H1997   1.083       .  S
C1987      C1988   1.406       .  A
C1987      H1998   1.083       .  S
C1988      C1989   1.406       .  A
C1989      C1990   1.402       .  A
C1989      H1999   1.083       .  S
C1990      H2000   1.082       .  S
C2001      C2002   1.405       .  A
C2001      C2006   1.407       .  A
C2002      C2003   1.394       .  A
C2002      H2015   1.083       .  S
C2003      C2004   1.403       .  A
C2003      H2016   1.084       .  S
C2004      C2005   1.411       .  A
C2004      C2007   1.492       .  S
C2005      C2006   1.405       .  A
C2005      H2017   1.080       .  S
C2006      H2018   1.083       .  S
C2007      C2008   1.348       .  D
C2007      H2019   1.085       .  S
C2008      C2009   1.491       .  S
C2008      H2020   1.084       .  S
C2009      C2010   1.403       .  A
C2009      C2014   1.409       .  A
C2010      C2011   1.400       .  A
C2010      H2021   1.083       .  S
C2011      C2012   1.407       .  A
C2011      H2022   1.083       .  S
C2012      C2013   1.405       .  A
C2013      C2014   1.400       .  A
C2013      H2023   1.083       .  S
C2014      H2024   1.082       .  S
C2025      C2026   1.401       .  A
C2025      C2030   1.404       .  A
C2026      C2027   1.394       .  A
C2026      H2039   1.081       .  S
C2027      C2028   1.402       .  A
C2027      H2040   1.084       .  S
C2028      C2029   1.410       .  A
C2028      C2031   1.487       .  S
C2029      C2030   1.406       .  A
C2029      H2041   1.082       .  S
C2030      H2042   1.083       .  S
C2031      C2032   1.348       .  D
C2031      H2043   1.086       .  S
C2032      C2033   1.491       .  S
C2032      H2044   1.086       .  S
C2033      C2034   1.404       .  A
C2033      C2038   1.408       .  A
C2034      C2035   1.400       .  A
C2034      H2045   1.083       .  S
C2035      C2036   1.404       .  A
C2035      H2046   1.083       .  S
C2036      C2037   1.407       .  A
C2037      C2038   1.401       .  A
C2037      H2047   1.083   1_556  S
C2038      H2048   1.082       .  S
C2049      C2050   1.406       .  A
C2049      C2054   1.407       .  A
C2050      C2051   1.397       .  A
C2050      H2063   1.083       .  S
C2051      C2052   1.403       .  A
C2051      H2064   1.084       .  S
C2052      C2053   1.408       .  A
C2052      C2055   1.489       .  S
C2053      C2054   1.404       .  A
C2053      H2065   1.082       .  S
C2054      H2066   1.083       .  S
C2055      C2056   1.349       .  D
C2055      H2067   1.086       .  S
C2056      C2057   1.491       .  S
C2056      H2068   1.086       .  S
C2057      C2058   1.405       .  A
C2057      C2062   1.407       .  A
C2058      C2059   1.403       .  A
C2058      H2069   1.083       .  S
C2059      C2060   1.407       .  A
C2059      H2070   1.083       .  S
C2060      C2061   1.407       .  A
C2061      C2062   1.398       .  A
C2061      H2071   1.083       .  S
C2062      H2072   1.082       .  S
C2073      C2074   1.404       .  A
C2073      C2078   1.405       .  A
C2074      C2075   1.400       .  A
C2074      H2087   1.083       .  S
C2075      C2076   1.404       .  A
C2075      H2088   1.083       .  S
C2076      C2077   1.407       .  A
C2076      C2079   1.484       .  S
C2077      C2078   1.398       .  A
C2077      H2089   1.082       .  S
C2078      H2090   1.083       .  S
C2079      C2080   1.346       .  D
C2079      H2091   1.086       .  S
C2080      C2081   1.484       .  S
C2080      H2092   1.086       .  S
C2081      C2082   1.403       .  A
C2081      C2086   1.407       .  A
C2082      C2083   1.399       .  A
C2082      H2093   1.083       .  S
C2083      C2084   1.406       .  A
C2083      H2094   1.083       .  S
C2084      C2085   1.405       .  A
C2085      C2086   1.398       .  A
C2085      H2095   1.083       .  S
C2086      H2096   1.082       .  S
C2097      C2098   1.406       .  A
C2097      C2102   1.406       .  A
C2098      C2099   1.398       .  A
C2098      H2111   1.083       .  S
C2099      C2100   1.402       .  A
C2099      H2112   1.083       .  S
C2100      C2101   1.407       .  A
C2100      C2103   1.483       .  S
C2101      C2102   1.399       .  A
C2101      H2113   1.082       .  S
C2102      H2114   1.083       .  S
C2103      C2104   1.346       .  D
C2103      H2115   1.086       .  S
C2104      C2105   1.485       .  S
C2104      H2116   1.086       .  S
C2105      C2106   1.405       .  A
C2105      C2110   1.406       .  A
C2106      C2107   1.401       .  A
C2106      H2117   1.083       .  S
C2107      C2108   1.404       .  A
C2107      H2118   1.083       .  S
C2108      C2109   1.404       .  A
C2109      C2110   1.396       .  A
C2109      H2119   1.083       .  S
C2110      H2120   1.082       .  S
C2121      C2122   1.405       .  A
C2121      C2126   1.406       .  A
C2122      C2123   1.397       .  A
C2122      H2135   1.083       .  S
C2123      C2124   1.404       .  A
C2123      H2136   1.083       .  S
C2124      C2125   1.410       .  A
C2124      C2127   1.492       .  S
C2125      C2126   1.402       .  A
C2125      H2137   1.080       .  S
C2126      H2138   1.083       .  S
C2127      C2128   1.349       .  D
C2127      H2139   1.085       .  S
C2128      C2129   1.492       .  S
C2128      H2140   1.084       .  S
C2129      C2130   1.404       .  A
C2129      C2134   1.410       .  A
C2130      C2131   1.399       .  A
C2130      H2141   1.083       .  S
C2131      C2132   1.406       .  A
C2131      H2142   1.083       .  S
C2132      C2133   1.406       .  A
C2133      C2134   1.402       .  A
C2133      H2143   1.083       .  S
C2134      H2144   1.081       .  S
C2145      C2146   1.405       .  A
C2145      C2150   1.404       .  A
C2146      C2147   1.394       .  A
C2146      H2159   1.083       .  S
C2147      C2148   1.400       .  A
C2147      H2160   1.084       .  S
C2148      C2149   1.407       .  A
C2148      C2151   1.480       .  S
C2149      C2150   1.401       .  A
C2149      H2161   1.082       .  S
C2150      H2162   1.083       .  S
C2151      C2152   1.344       .  D
C2151      H2163   1.086       .  S
C2152      C2153   1.481       .  S
C2152      H2164   1.087       .  S
C2153      C2154   1.401       .  A
C2153      C2158   1.407       .  A
C2154      C2155   1.395       .  A
C2154      H2165   1.084       .  S
C2155      C2156   1.405       .  A
C2155      H2166   1.083       .  S
C2156      C2157   1.405       .  A
C2157      C2158   1.399       .  A
C2157      H2167   1.083       .  S
C2158      H2168   1.082       .  S
C2169      C2170   1.406       .  A
C2169      C2174   1.406       .  A
C2170      C2171   1.396       .  A
C2170      H2183   1.083       .  S
C2171      C2172   1.401       .  A
C2171      H2184   1.084       .  S
C2172      C2173   1.407       .  A
C2172      C2175   1.481       .  S
C2173      C2174   1.401       .  A
C2173      H2185   1.083       .  S
C2174      H2186   1.083       .  S
C2175      C2176   1.344       .  D
C2175      H2187   1.087       .  S
C2176      C2177   1.482       .  S
C2176      H2188   1.087       .  S
C2177      C2178   1.401       .  A
C2177      C2182   1.407       .  A
C2178      C2179   1.396       .  A
C2178      H2189   1.084       .  S
C2179      C2180   1.406       .  A
C2179      H2190   1.083       .  S
C2180      C2181   1.406       .  A
C2181      C2182   1.401       .  A
C2181      H2191   1.083       .  S
C2182      H2192   1.082       .  S
C2193      C2194   1.405       .  A
C2193      C2198   1.406   1_554  A
C2194      C2195   1.404       .  A
C2194      H2207   1.083       .  S
C2195      C2196   1.406       .  A
C2195      H2208   1.083       .  S
C2196      C2197   1.407   1_554  A
C2196      C2199   1.492       .  S
C2197      C2198   1.402       .  A
C2197      H2209   1.082       .  S
C2198      H2210   1.083       .  S
C2199      C2200   1.350       .  D
C2199      H2211   1.086       .  S
C2200      C2201   1.493       .  S
C2200      H2212   1.086   1_554  S
C2201      C2202   1.407   1_554  A
C2201      C2206   1.406       .  A
C2202      C2203   1.406   1_556  A
C2202      H2213   1.083       .  S
C2203      C2204   1.404       .  A
C2203      H2214   1.083   1_554  S
C2204      C2205   1.407       .  A
C2205      C2206   1.400       .  A
C2205      H2215   1.083       .  S
C2206      H2216   1.082       .  S
C2217      C2218   1.406       .  A
C2217      C2222   1.405       .  A
C2218      C2219   1.401       .  A
C2218      H2231   1.083       .  S
C2219      C2220   1.405       .  A
C2219      H2232   1.083       .  S
C2220      C2221   1.409       .  A
C2220      C2223   1.491       .  S
C2221      C2222   1.397       .  A
C2221      H2233   1.081       .  S
C2222      H2234   1.083       .  S
C2223      C2224   1.349       .  D
C2223      H2235   1.084       .  S
C2224      C2225   1.490       .  S
C2224      H2236   1.084       .  S
C2225      C2226   1.403       .  A
C2225      C2230   1.410       .  A
C2226      C2227   1.395       .  A
C2226      H2237   1.084       .  S
C2227      C2228   1.405       .  A
C2227      H2238   1.083       .  S
C2228      C2229   1.407       .  A
C2229      C2230   1.404       .  A
C2229      H2239   1.083       .  S
C2230      H2240   1.081       .  S
C2241      C2242   1.406       .  A
C2241      C2246   1.407       .  A
C2242      C2243   1.405       .  A
C2242      H2255   1.083       .  S
C2243      C2244   1.407       .  A
C2243      H2256   1.083       .  S
C2244      C2245   1.405       .  A
C2244      C2247   1.490       .  S
C2245      C2246   1.394       .  A
C2245      H2257   1.082       .  S
C2246      H2258   1.083       .  S
C2247      C2248   1.350       .  D
C2247      H2259   1.085       .  S
C2248      C2249   1.489       .  S
C2248      H2260   1.086       .  S
C2249      C2250   1.404       .  A
C2249      C2254   1.407       .  A
C2250      C2251   1.399       .  A
C2250      H2261   1.083       .  S
C2251      C2252   1.406       .  A
C2251      H2262   1.083       .  S
C2252      C2253   1.407       .  A
C2253      C2254   1.401       .  A
C2253      H2263   1.083       .  S
C2254      H2264   1.082       .  S
C2265      C2266   1.405       .  A
C2265      C2270   1.405       .  A
C2266      C2267   1.395       .  A
C2266      H2279   1.083       .  S
C2267      C2268   1.402       .  A
C2267      H2280   1.084       .  S
C2268      C2269   1.408       .  A
C2268      C2271   1.485       .  S
C2269      C2270   1.401       .  A
C2269      H2281   1.082       .  S
C2270      H2282   1.083       .  S
C2271      C2272   1.348       .  D
C2271      H2283   1.086       .  S
C2272      C2273   1.485       .  S
C2272      H2284   1.086       .  S
C2273      C2274   1.407       .  A
C2273      C2278   1.403       .  A
C2274      C2275   1.399       .  A
C2274      H2285   1.082       .  S
C2275      C2276   1.406       .  A
C2275      H2286   1.083       .  S
C2276      C2277   1.405       .  A
C2277      C2278   1.397       .  A
C2277      H2287   1.083       .  S
C2278      H2288   1.083       .  S
C2289      C2290   1.406       .  A
C2289      C2294   1.405       .  A
C2290      C2291   1.400       .  A
C2290      H2303   1.083       .  S
C2291      C2292   1.403       .  A
C2291      H2304   1.083       .  S
C2292      C2293   1.407       .  A
C2292      C2295   1.485       .  S
C2293      C2294   1.397       .  A
C2293      H2305   1.082       .  S
C2294      H2306   1.083       .  S
C2295      C2296   1.345       .  D
C2295      H2307   1.086       .  S
C2296      C2297   1.483       .  S
C2296      H2308   1.086       .  S
C2297      C2298   1.402       .  A
C2297      C2302   1.407       .  A
C2298      C2299   1.397       .  A
C2298      H2309   1.083       .  S
C2299      C2300   1.405       .  A
C2299      H2310   1.083       .  S
C2300      C2301   1.406       .  A
C2301      C2302   1.400       .  A
C2301      H2311   1.083       .  S
C2302      H2312   1.082       .  S
C2313      C2314   1.405       .  A
C2313      C2318   1.404       .  A
C2314      C2315   1.397       .  A
C2314      H2327   1.083       .  S
C2315      C2316   1.402       .  A
C2315      H2328   1.083       .  S
C2316      C2317   1.407       .  A
C2316      C2319   1.481       .  S
C2317      C2318   1.394       .  A
C2317      H2329   1.081       .  S
C2318      H2330   1.083       .  S
C2319      C2320   1.343       .  D
C2319      H2331   1.087       .  S
C2320      C2321   1.479       .  S
C2320      H2332   1.086       .  S
C2321      C2322   1.401       .  A
C2321      C2326   1.408       .  A
C2322      C2323   1.396       .  A
C2322      H2333   1.083       .  S
C2323      C2324   1.406       .  A
C2323      H2334   1.083       .  S
C2324      C2325   1.404       .  A
C2325      C2326   1.395       .  A
C2325      H2335   1.083       .  S
C2326      H2336   1.082       .  S
C2337      C2338   1.406       .  A
C2337      C2342   1.404       .  A
C2338      C2339   1.405       .  A
C2338      H2351   1.083       .  S
C2339      C2340   1.406       .  A
C2339      H2352   1.083       .  S
C2340      C2341   1.407       .  A
C2340      C2343   1.490       .  S
C2341      C2342   1.393       .  A
C2341      H2353   1.082       .  S
C2342      H2354   1.083       .  S
C2343      C2344   1.348       .  D
C2343      H2355   1.085       .  S
C2344      C2345   1.486       .  S
C2344      H2356   1.086       .  S
C2345      C2346   1.402       .  A
C2345      C2350   1.410       .  A
C2346      C2347   1.392       .  A
C2346      H2357   1.084       .  S
C2347      C2348   1.405       .  A
C2347      H2358   1.083       .  S
C2348      C2349   1.407       .  A
C2349      C2350   1.406       .  A
C2349      H2359   1.083       .  S
C2350      H2360   1.081       .  S
C2361      C2362   1.408       .  A
C2361      C2366   1.406       .  A
C2362      C2363   1.401       .  A
C2362      H2375   1.083   1_556  S
C2363      C2364   1.403       .  A
C2363      H2376   1.083       .  S
C2364      C2365   1.410       .  A
C2364      C2367   1.493       .  S
C2365      C2366   1.402       .  A
C2365      H2377   1.082       .  S
C2366      H2378   1.083       .  S
C2367      C2368   1.348       .  D
C2367      H2379   1.086       .  S
C2368      C2369   1.492       .  S
C2368      H2380   1.086       .  S
C2369      C2370   1.401       .  A
C2369      C2374   1.411       .  A
C2370      C2371   1.395       .  A
C2370      H2381   1.084       .  S
C2371      C2372   1.408       .  A
C2371      H2382   1.083       .  S
C2372      C2373   1.407       .  A
C2373      C2374   1.408       .  A
C2373      H2383   1.083       .  S
C2374      H2384   1.081       .  S
C2385      C2386   1.405       .  A
C2385      C2390   1.407       .  A
C2386      C2387   1.399       .  A
C2386      H2399   1.083       .  S
C2387      C2388   1.404       .  A
C2387      H2400   1.083       .  S
C2388      C2389   1.407       .  A
C2388      C2391   1.488       .  S
C2389      C2390   1.400       .  A
C2389      H2401   1.082       .  S
C2390      H2402   1.083       .  S
C2391      C2392   1.349       .  D
C2391      H2403   1.086       .  S
C2392      C2393   1.486       .  S
C2392      H2404   1.085       .  S
C2393      C2394   1.404       .  A
C2393      C2398   1.408       .  A
C2394      C2395   1.397       .  A
C2394      H2405   1.083       .  S
C2395      C2396   1.401       .  A
C2395      H2406   1.084       .  S
C2396      C2397   1.402       .  A
C2397      C2398   1.402       .  A
C2397      H2407   1.083       .  S
C2398      H2408   1.082       .  S
C2409      C2410   1.407       .  A
C2409      C2414   1.407       .  A
C2410      C2411   1.399       .  A
C2410      H2423   1.083       .  S
C2411      C2412   1.403       .  A
C2411      H2424   1.083       .  S
C2412      C2413   1.410       .  A
C2412      C2415   1.494       .  S
C2413      C2414   1.405       .  A
C2413      H2425   1.082       .  S
C2414      H2426   1.083       .  S
C2415      C2416   1.348       .  D
C2415      H2427   1.086       .  S
C2416      C2417   1.493       .  S
C2416      H2428   1.086       .  S
C2417      C2418   1.402       .  A
C2417      C2422   1.411       .  A
C2418      C2419   1.397       .  A
C2418      H2429   1.083       .  S
C2419      C2420   1.407       .  A
C2419      H2430   1.083       .  S
C2420      C2421   1.408       .  A
C2421      C2422   1.407       .  A
C2421      H2431   1.083       .  S
C2422      H2432   1.082       .  S
C2433      C2434   1.407       .  A
C2433      C2438   1.405       .  A
C2434      C2435   1.400       .  A
C2434      H2447   1.083       .  S
C2435      C2436   1.403       .  A
C2435      H2448   1.083   1_556  S
C2436      C2437   1.406       .  A
C2436      C2439   1.484   1_556  S
C2437      C2438   1.394       .  A
C2437      H2449   1.082       .  S
C2438      H2450   1.083       .  S
C2439      C2440   1.346       .  D
C2439      H2451   1.085       .  S
C2440      C2441   1.482       .  S
C2440      H2452   1.086       .  S
C2441      C2442   1.401       .  A
C2441      C2446   1.409       .  A
C2442      C2443   1.392       .  A
C2442      H2453   1.084       .  S
C2443      C2444   1.405       .  A
C2443      H2454   1.083       .  S
C2444      C2445   1.405       .  A
C2445      C2446   1.402       .  A
C2445      H2455   1.083       .  S
C2446      H2456   1.081       .  S
C2457      C2458   1.405       .  A
C2457      C2462   1.407       .  A
C2458      C2459   1.389       .  A
C2458      H2471   1.083       .  S
C2459      C2460   1.399       .  A
C2459      H2472   1.084       .  S
C2460      C2461   1.407       .  A
C2460      C2463   1.476       .  S
C2461      C2462   1.403       .  A
C2461      H2473   1.082       .  S
C2462      H2474   1.083       .  S
C2463      C2464   1.343       .  D
C2463      H2475   1.087       .  S
C2464      C2465   1.481       .  S
C2464      H2476   1.086       .  S
C2465      C2466   1.402       .  A
C2465      C2470   1.405       .  A
C2466      C2467   1.399       .  A
C2466      H2477   1.083       .  S
C2467      C2468   1.406       .  A
C2467      H2478   1.083       .  S
C2468      C2469   1.406       .  A
C2469      C2470   1.394       .  A
C2469      H2479   1.083       .  S
C2470      H2480   1.083       .  S
C2481      C2482   1.405       .  A
C2481      C2486   1.406       .  A
C2482      C2483   1.401       .  A
C2482      H2495   1.083       .  S
C2483      C2484   1.405       .  A
C2483      H2496   1.083       .  S
C2484      C2485   1.406       .  A
C2484      C2487   1.486       .  S
C2485      C2486   1.397       .  A
C2485      H2497   1.082       .  S
C2486      H2498   1.083       .  S
C2487      C2488   1.347       .  D
C2487      H2499   1.086       .  S
C2488      C2489   1.485       .  S
C2488      H2500   1.086       .  S
C2489      C2490   1.403       .  A
C2489      C2494   1.406       .  A
C2490      C2491   1.399       .  A
C2490      H2501   1.083       .  S
C2491      C2492   1.406       .  A
C2491      H2502   1.083       .  S
C2492      C2493   1.406       .  A
C2493      C2494   1.400       .  A
C2493      H2503   1.083       .  S
C2494      H2504   1.082       .  S
C2505      C2506   1.405       .  A
C2505      C2510   1.404       .  A
C2506      C2507   1.397       .  A
C2506      H2519   1.083       .  S
C2507      C2508   1.401       .  A
C2507      H2520   1.083       .  S
C2508      C2509   1.406       .  A
C2508      C2511   1.477       .  S
C2509      C2510   1.395       .  A
C2509      H2521   1.083       .  S
C2510      H2522   1.083       .  S
C2511      C2512   1.343       .  D
C2511      H2523   1.086       .  S
C2512      C2513   1.479       .  S
C2512      H2524   1.087       .  S
C2513      C2514   1.402       .  A
C2513      C2518   1.405       .  A
C2514      C2515   1.398       .  A
C2514      H2525   1.083       .  S
C2515      C2516   1.406       .  A
C2515      H2526   1.083       .  S
C2516      C2517   1.405       .  A
C2517      C2518   1.395       .  A
C2517      H2527   1.083       .  S
C2518      H2528   1.082       .  S
C2529      C2530   1.405       .  A
C2529      C2534   1.403       .  A
C2530      C2531   1.395       .  A
C2530      H2543   1.083       .  S
C2531      C2532   1.404       .  A
C2531      H2544   1.084       .  S
C2532      C2533   1.410       .  A
C2532      C2535   1.489       .  S
C2533      C2534   1.397       .  A
C2533      H2545   1.079       .  S
C2534      H2546   1.083       .  S
C2535      C2536   1.348       .  D
C2535      H2547   1.085       .  S
C2536      C2537   1.484   1_556  S
C2536      H2548   1.082       .  S
C2537      C2538   1.404       .  A
C2537      C2542   1.407       .  A
C2538      C2539   1.397       .  A
C2538      H2549   1.083       .  S
C2539      C2540   1.404       .  A
C2539      H2550   1.083       .  S
C2540      C2541   1.405       .  A
C2541      C2542   1.395       .  A
C2541      H2551   1.083       .  S
C2542      H2552   1.081       .  S
C2553      C2554   1.405       .  A
C2553      C2558   1.409       .  A
C2554      C2555   1.399       .  A
C2554      H2567   1.083       .  S
C2555      C2556   1.406       .  A
C2555      H2568   1.083       .  S
C2556      C2557   1.411       .  A
C2556      C2559   1.499       .  S
C2557      C2558   1.408       .  A
C2557      H2569   1.081       .  S
C2558      H2570   1.083       .  S
C2559      C2560   1.354       .  D
C2559      H2571   1.085       .  S
C2560      C2561   1.500       .  S
C2560      H2572   1.084       .  S
C2561      C2562   1.409       .  A
C2561      C2566   1.407       .  A
C2562      C2563   1.409       .  A
C2562      H2573   1.083       .  S
C2563      C2564   1.408       .  A
C2563      H2574   1.083       .  S
C2564      C2565   1.408       .  A
C2565      C2566   1.398       .  A
C2565      H2575   1.083       .  S
C2566      H2576   1.081       .  S
C2577      C2578   1.407       .  A
C2577      C2582   1.406       .  A
C2578      C2579   1.400       .  A
C2578      H2591   1.083       .  S
C2579      C2580   1.404       .  A
C2579      H2592   1.083       .  S
C2580      C2581   1.408       .  A
C2580      C2583   1.489       .  S
C2581      C2582   1.401       .  A
C2581      H2593   1.082       .  S
C2582      H2594   1.083       .  S
C2583      C2584   1.349       .  D
C2583      H2595   1.086       .  S
C2584      C2585   1.489       .  S
C2584      H2596   1.086       .  S
C2585      C2586   1.404       .  A
C2585      C2590   1.407       .  A
C2586      C2587   1.401       .  A
C2586      H2597   1.083       .  S
C2587      C2588   1.406       .  A
C2587      H2598   1.083       .  S
C2588      C2589   1.407       .  A
C2589      C2590   1.399       .  A
C2589      H2599   1.083       .  S
C2590      H2600   1.082       .  S
C2601      C2602   1.402       .  A
C2601      C2606   1.402       .  A
C2602      C2603   1.403       .  A
C2602      H2615   1.083       .  S
C2603      C2604   1.407       .  A
C2603      H2616   1.083       .  S
C2604      C2605   1.407       .  A
C2604      C2607   1.487       .  S
C2605      C2606   1.394       .  A
C2605      H2617   1.081       .  S
C2606      H2618   1.084       .  S
C2607      C2608   1.348       .  D
C2607      H2619   1.086       .  S
C2608      C2609   1.486       .  S
C2608      H2620   1.086       .  S
C2609      C2610   1.406       .  A
C2609      C2614   1.407       .  A
C2610      C2611   1.402       .  A
C2610      H2621   1.083       .  S
C2611      C2612   1.403       .  A
C2611      H2622   1.083       .  S
C2612      C2613   1.403       .  A
C2613      C2614   1.396       .  A
C2613      H2623   1.084       .  S
C2614      H2624   1.082       .  S
C2625      C2626   1.406       .  A
C2625      C2630   1.405       .  A
C2626      C2627   1.394       .  A
C2626      H2639   1.083       .  S
C2627      C2628   1.401       .  A
C2627      H2640   1.084       .  S
C2628      C2629   1.409       .  A
C2628      C2631   1.485       .  S
C2629      C2630   1.400       .  A
C2629      H2641   1.081       .  S
C2630      H2642   1.083       .  S
C2631      C2632   1.346       .  D
C2631      H2643   1.085       .  S
C2632      C2633   1.486       .  S
C2632      H2644   1.085       .  S
C2633      C2634   1.402       .  A
C2633      C2638   1.409       .  A
C2634      C2635   1.397       .  A
C2634      H2645   1.084       .  S
C2635      C2636   1.406       .  A
C2635      H2646   1.083       .  S
C2636      C2637   1.404       .  A
C2637      C2638   1.398       .  A
C2637      H2647   1.083       .  S
C2638      H2648   1.081       .  S
C2649      C2650   1.405       .  A
C2649      C2654   1.408       .  A
C2650      C2651   1.393       .  A
C2650      H2663   1.083       .  S
C2651      C2652   1.401       .  A
C2651      H2664   1.084       .  S
C2652      C2653   1.410       .  A
C2652      C2655   1.490       .  S
C2653      C2654   1.410       .  A
C2653      H2665   1.082   1_556  S
C2654      H2666   1.083   1_556  S
C2655      C2656   1.349   1_556  D
C2655      H2667   1.085       .  S
C2656      C2657   1.496       .  S
C2656      H2668   1.085       .  S
C2657      C2658   1.407       .  A
C2657      C2662   1.408       .  A
C2658      C2659   1.407       .  A
C2658      H2669   1.083       .  S
C2659      C2660   1.408       .  A
C2659      H2670   1.083       .  S
C2660      C2661   1.405       .  A
C2661      C2662   1.395       .  A
C2661      H2671   1.083       .  S
C2662      H2672   1.081   1_554  S
C2673      C2674   1.406       .  A
C2673      C2678   1.406       .  A
C2674      C2675   1.401       .  A
C2674      H2687   1.083       .  S
C2675      C2676   1.405       .  A
C2675      H2688   1.083       .  S
C2676      C2677   1.408       .  A
C2676      C2679   1.491       .  S
C2677      C2678   1.397       .  A
C2677      H2689   1.081       .  S
C2678      H2690   1.083       .  S
C2679      C2680   1.350       .  D
C2679      H2691   1.084       .  S
C2680      C2681   1.489       .  S
C2680      H2692   1.084       .  S
C2681      C2682   1.404       .  A
C2681      C2686   1.409       .  A
C2682      C2683   1.397       .  A
C2682      H2693   1.083       .  S
C2683      C2684   1.405       .  A
C2683      H2694   1.083       .  S
C2684      C2685   1.406       .  A
C2685      C2686   1.401       .  A
C2685      H2695   1.083       .  S
C2686      H2696   1.081       .  S
C2697      C2698   1.403       .  A
C2697      C2702   1.407       .  A
C2698      C2699   1.395       .  A
C2698      H2711   1.084       .  S
C2699      C2700   1.405       .  A
C2699      H2712   1.083       .  S
C2700      C2701   1.409       .  A
C2700      C2703   1.490       .  S
C2701      C2702   1.404       .  A
C2701      H2713   1.081       .  S
C2702      H2714   1.083       .  S
C2703      C2704   1.350       .  D
C2703      H2715   1.087       .  S
C2704      C2705   1.489       .  S
C2704      H2716   1.084       .  S
C2705      C2706   1.407       .  A
C2705      C2710   1.405       .  A
C2706      C2707   1.408       .  A
C2706      H2717   1.083       .  S
C2707      C2708   1.406       .  A
C2707      H2718   1.083       .  S
C2708      C2709   1.404       .  A
C2709      C2710   1.391       .  A
C2709      H2719   1.083       .  S
C2710      H2720   1.082       .  S
C2721      C2722   1.406       .  A
C2721      C2726   1.405       .  A
C2722      C2723   1.395       .  A
C2722      H2735   1.083       .  S
C2723      C2724   1.401       .  A
C2723      H2736   1.084       .  S
C2724      C2725   1.410       .  A
C2724      C2727   1.487       .  S
C2725      C2726   1.401       .  A
C2725      H2737   1.081       .  S
C2726      H2738   1.083       .  S
C2727      C2728   1.345       .  D
C2727      H2739   1.085       .  S
C2728      C2729   1.487       .  S
C2728      H2740   1.085       .  S
C2729      C2730   1.401       .  A
C2729      C2734   1.411       .  A
C2730      C2731   1.393       .  A
C2730      H2741   1.084       .  S
C2731      C2732   1.406       .  A
C2731      H2742   1.083       .  S
C2732      C2733   1.405       .  A
C2733      C2734   1.403       .  A
C2733      H2743   1.083       .  S
C2734      H2744   1.081       .  S
C2745      C2746   1.407       .  A
C2745      C2750   1.406       .  A
C2746      C2747   1.396       .  A
C2746      H2759   1.083       .  S
C2747      C2748   1.402       .  A
C2747      H2760   1.083       .  S
C2748      C2749   1.409       .  A
C2748      C2751   1.488       .  S
C2749      C2750   1.403       .  A
C2749      H2761   1.081       .  S
C2750      H2762   1.083       .  S
C2751      C2752   1.348       .  D
C2751      H2763   1.086       .  S
C2752      C2753   1.489       .  S
C2752      H2764   1.085       .  S
C2753      C2754   1.405       .  A
C2753      C2758   1.407       .  A
C2754      C2755   1.403       .  A
C2754      H2765   1.083       .  S
C2755      C2756   1.405       .  A
C2755      H2766   1.083       .  S
C2756      C2757   1.406       .  A
C2757      C2758   1.396       .  A
C2757      H2767   1.083       .  S
C2758      H2768   1.082       .  S
C2769      C2770   1.406       .  A
C2769      C2774   1.406       .  A
C2770      C2771   1.400       .  A
C2770      H2783   1.083       .  S
C2771      C2772   1.402       .  A
C2771      H2784   1.083       .  S
C2772      C2773   1.406       .  A
C2772      C2775   1.484       .  S
C2773      C2774   1.401       .  A
C2773      H2785   1.083       .  S
C2774      H2786   1.083       .  S
C2775      C2776   1.345       .  D
C2775      H2787   1.087       .  S
C2776      C2777   1.485       .  S
C2776      H2788   1.087       .  S
C2777      C2778   1.405       .  A
C2777      C2782   1.406       .  A
C2778      C2779   1.402       .  A
C2778      H2789   1.083       .  S
C2779      C2780   1.403       .  A
C2779      H2790   1.083       .  S
C2780      C2781   1.404       .  A
C2781      C2782   1.399       .  A
C2781      H2791   1.083       .  S
C2782      H2792   1.083       .  S
C2793      C2794   1.403       .  A
C2793      C2798   1.403       .  A
C2794      C2795   1.402       .  A
C2794      H2807   1.083       .  S
C2795      C2796   1.405       .  A
C2795      H2808   1.083       .  S
C2796      C2797   1.407       .  A
C2796      C2799   1.485       .  S
C2797      C2798   1.397       .  A
C2797      H2809   1.083       .  S
C2798      H2810   1.084       .  S
C2799      C2800   1.345       .  D
C2799      H2811   1.086       .  S
C2800      C2801   1.484       .  S
C2800      H2812   1.087       .  S
C2801      C2802   1.402       .  A
C2801      C2806   1.407       .  A
C2802      C2803   1.399       .  A
C2802      H2813   1.083       .  S
C2803      C2804   1.407       .  A
C2803      H2814   1.083       .  S
C2804      C2805   1.406       .  A
C2805      C2806   1.400       .  A
C2805      H2815   1.083       .  S
C2806      H2816   1.083       .  S
C2817      C2818   1.407       .  A
C2817      C2822   1.408       .  A
C2818      C2819   1.392       .  A
C2818      H2831   1.083       .  S
C2819      C2820   1.399       .  A
C2819      H2832   1.084       .  S
C2820      C2821   1.408       .  A
C2820      C2823   1.483       .  S
C2821      C2822   1.406       .  A
C2821      H2833   1.082       .  S
C2822      H2834   1.083       .  S
C2823      C2824   1.345       .  D
C2823      H2835   1.086       .  S
C2824      C2825   1.488       .  S
C2824      H2836   1.086       .  S
C2825      C2826   1.403       .  A
C2825      C2830   1.407       .  A
C2826      C2827   1.401       .  A
C2826      H2837   1.083       .  S
C2827      C2828   1.407       .  A
C2827      H2838   1.083       .  S
C2828      C2829   1.406       .  A
C2829      C2830   1.397       .  A
C2829      H2839   1.083       .  S
C2830      H2840   1.082       .  S
C2841      C2842   1.405       .  A
C2841      C2846   1.407       .  A
C2842      C2843   1.399       .  A
C2842      H2855   1.083       .  S
C2843      C2844   1.405       .  A
C2843      H2856   1.083       .  S
C2844      C2845   1.409       .  A
C2844      C2847   1.493       .  S
C2845      C2846   1.401       .  A
C2845      H2857   1.080       .  S
C2846      H2858   1.083       .  S
C2847      C2848   1.351       .  D
C2847      H2859   1.084       .  S
C2848      C2849   1.492       .  S
C2848      H2860   1.083       .  S
C2849      C2850   1.406       .  A
C2849      C2854   1.408       .  A
C2850      C2851   1.402       .  A
C2850      H2861   1.083       .  S
C2851      C2852   1.406       .  A
C2851      H2862   1.083       .  S
C2852      C2853   1.406       .  A
C2853      C2854   1.398       .  A
C2853      H2863   1.083       .  S
C2854      H2864   1.081       .  S
C2865      C2866   1.403       .  A
C2865      C2870   1.405       .  A
C2866      C2867   1.388       .  A
C2866      H2879   1.083       .  S
C2867      C2868   1.399       .  A
C2867      H2880   1.084       .  S
C2868      C2869   1.408       .  A
C2868      C2871   1.476       .  S
C2869      C2870   1.404       .  A
C2869      H2881   1.082       .  S
C2870      H2882   1.083       .  S
C2871      C2872   1.344       .  D
C2871      H2883   1.086       .  S
C2872      C2873   1.484       .  S
C2872      H2884   1.086       .  S
C2873      C2874   1.403       .  A
C2873      C2878   1.408       .  A
C2874      C2875   1.399       .  A
C2874      H2885   1.083       .  S
C2875      C2876   1.406       .  A
C2875      H2886   1.083       .  S
C2876      C2877   1.403       .  A
C2877      C2878   1.394       .  A
C2877      H2887   1.083       .  S
C2878      H2888   1.082       .  S
C2889      C2890   1.406       .  A
C2889      C2894   1.405       .  A
C2890      C2891   1.398       .  A
C2890      H2903   1.083       .  S
C2891      C2892   1.402       .  A
C2891      H2904   1.083       .  S
C2892      C2893   1.407       .  A
C2892      C2895   1.483       .  S
C2893      C2894   1.399       .  A
C2893      H2905   1.082       .  S
C2894      H2906   1.083       .  S
C2895      C2896   1.345       .  D
C2895      H2907   1.086       .  S
C2896      C2897   1.483       .  S
C2896      H2908   1.086       .  S
C2897      C2898   1.402       .  A
C2897      C2902   1.407       .  A
C2898      C2899   1.398       .  A
C2898      H2909   1.083       .  S
C2899      C2900   1.404       .  A
C2899      H2910   1.083       .  S
C2900      C2901   1.405       .  A
C2901      C2902   1.399       .  A
C2901      H2911   1.083       .  S
C2902      H2912   1.082       .  S
C2913      C2914   1.408       .  A
C2913      C2918   1.406       .  A
C2914      C2915   1.406       .  A
C2914      H2927   1.083       .  S
C2915      C2916   1.406       .  A
C2915      H2928   1.083       .  S
C2916      C2917   1.408       .  A
C2916      C2919   1.498       .  S
C2917      C2918   1.398       .  A
C2917      H2929   1.082       .  S
C2918      H2930   1.083       .  S
C2919      C2920   1.350       .  D
C2919      H2931   1.085       .  S
C2920      C2921   1.495       .  S
C2920      H2932   1.085       .  S
C2921      C2922   1.402       .  A
C2921      C2926   1.412       .  A
C2922      C2923   1.393       .  A
C2922      H2933   1.084       .  S
C2923      C2924   1.406       .  A
C2923      H2934   1.083       .  S
C2924      C2925   1.409       .  A
C2925      C2926   1.411       .  A
C2925      H2935   1.083       .  S
C2926      H2936   1.081       .  S
C2937      C2938   1.406       .  A
C2937      C2942   1.404       .  A
C2938      C2939   1.396       .  A
C2938      H2951   1.083       .  S
C2939      C2940   1.401       .  A
C2939      H2952   1.083       .  S
C2940      C2941   1.408       .  A
C2940      C2943   1.481       .  S
C2941      C2942   1.400       .  A
C2941      H2953   1.082       .  S
C2942      H2954   1.083       .  S
C2943      C2944   1.343       .  D
C2943      H2955   1.087       .  S
C2944      C2945   1.481       .  S
C2944      H2956   1.086       .  S
C2945      C2946   1.404       .  A
C2945      C2950   1.406       .  A
C2946      C2947   1.401       .  A
C2946      H2957   1.083       .  S
C2947      C2948   1.403       .  A
C2947      H2958   1.083       .  S
C2948      C2949   1.402       .  A
C2949      C2950   1.394       .  A
C2949      H2959   1.084       .  S
C2950      H2960   1.083       .  S
C2961      C2962   1.405       .  A
C2961      C2966   1.407       .  A
C2962      C2963   1.400       .  A
C2962      H2975   1.083       .  S
C2963      C2964   1.403       .  A
C2963      H2976   1.083       .  S
C2964      C2965   1.407       .  A
C2964      C2967   1.487       .  S
C2965      C2966   1.401       .  A
C2965      H2977   1.082       .  S
C2966      H2978   1.083       .  S
C2967      C2968   1.348       .  D
C2967      H2979   1.086       .  S
C2968      C2969   1.489       .  S
C2968      H2980   1.086       .  S
C2969      C2970   1.405       .  A
C2969      C2974   1.406       .  A
C2970      C2971   1.402       .  A
C2970      H2981   1.083       .  S
C2971      C2972   1.405       .  A
C2971      H2982   1.083       .  S
C2972      C2973   1.406       .  A
C2973      C2974   1.398       .  A
C2973      H2983   1.083       .  S
C2974      H2984   1.082       .  S
C2985      C2986   1.407       .  A
C2985      C2990   1.406       .  A
C2986      C2987   1.400       .  A
C2986      H2999   1.083       .  S
C2987      C2988   1.404       .  A
C2987      H3000   1.084       .  S
C2988      C2989   1.409       .  A
C2988      C2991   1.493       .  S
C2989      C2990   1.402       .  A
C2989      H3001   1.081       .  S
C2990      H3002   1.083       .  S
C2991      C2992   1.350       .  D
C2991      H3003   1.084       .  S
C2992      C2993   1.495       .  S
C2992      H3004   1.085       .  S
C2993      C2994   1.405       .  A
C2993      C2998   1.410       .  A
C2994      C2995   1.399       .  A
C2994      H3005   1.083       .  S
C2995      C2996   1.405       .  A
C2995      H3006   1.083       .  S
C2996      C2997   1.407       .  A
C2997      C2998   1.402       .  A
C2997      H3007   1.083       .  S
C2998      H3008   1.080       .  S
