geometry optimzed in LAMMPS
_audit_creation_date              2020-12-01 
_audit_creation_method            'lammps2cif' 
_symmetry_space_group_name_H-M    'P1' 
_symmetry_Int_Tables_number       1 
_symmetry_cell_setting            triclinic 
loop_ 
_symmetry_equiv_pos_as_xyz 
  x,y,z 
_cell_length_a                    52.01736352 
_cell_length_b                    52.216527721216444 
_cell_length_c                    57.6015056107763 
_cell_angle_alpha                 89.98432588098383 
_cell_angle_beta                  89.96769358296241 
_cell_angle_gamma                 90.05635867617544 
loop_ 
_atom_site_label 
_atom_site_type_symbol 
_atom_site_fract_x 
_atom_site_fract_y 
_atom_site_fract_z 
_atom_site_charge 
O1          O  0.43908622  0.71108824  0.09217853    -0.80500
C2          C  0.39395198  0.67404817  0.17488958     0.98800
O3          O  0.38214788  0.67845937  0.15609103    -0.69700
O4          O  0.38736094  0.72512921  0.14059979    -0.73200
Al5        Al  0.39288347  0.69280768  0.12679630     1.49000
C6          C  0.39791982  0.74560086  0.13423717     0.94100
O7          O  0.45443783  0.72806291  0.15469160    -0.79500
O8          O  0.46354609  0.65941414  0.12593386    -0.73000
Al9        Al  0.44608897  0.71861199  0.12367259     1.90100
O10         O  0.46459566  0.68900678  0.16573115    -0.72100
O11         O  0.41861207  0.64100915  0.13773987    -0.71900
O12         O  0.41814513  0.67325861  0.17527799    -0.77600
O13         O  0.39375803  0.66025186  0.11249921    -0.75800
O14         O  0.42624328  0.69294401  0.13335866    -1.11900
O15         O  0.39710193  0.70700328  0.09585540    -0.71100
C16         C  0.41695748  0.70955417  0.08321232     0.99600
C17         C  0.46481231  0.71297068  0.16903457     0.96000
Al18       Al  0.44009966  0.66772686  0.14973768     1.55600
O19         O  0.41970865  0.74494241  0.12445093    -0.75800
C20         C  0.40221898  0.64005593  0.12161793     1.00100
C21         C  0.48107620  0.67440795  0.11942897     0.95000
O22         O  0.47751109  0.69842741  0.12043287    -0.81100
O23         O  0.45603979  0.69233964  0.87348660    -0.80500
C24         C  0.36427440  0.68319649  0.82075274     0.98800
O25         O  0.38360205  0.66866336  0.81984402    -0.69700
O26         O  0.42551281  0.69497031  0.81136941    -0.73200
Al27       Al  0.41666401  0.67034392  0.83416087     1.49000
C28         C  0.44293658  0.71154204  0.81372327     0.94100
O29         O  0.40963589  0.74529590  0.85450154    -0.79500
O30         O  0.38932096  0.69087925  0.89824866    -0.73000
Al31       Al  0.43143554  0.71742522  0.86363383     1.90100
O32         O  0.37425781  0.73046998  0.87032454    -0.72100
O33         O  0.37238128  0.65736549  0.86757773    -0.71900
O34         O  0.36074022  0.69781290  0.83786025    -0.77600
O35         O  0.40901243  0.64283088  0.85429117    -0.75800
O36         O  0.40838309  0.69391700  0.85515537    -1.11900
O37         O  0.45155326  0.66676222  0.84370679    -0.71100
C38         C  0.46453364  0.67440496  0.86086170     0.99600
C39         C  0.38697452  0.74878152  0.86176208     0.96000
Al40       Al  0.37686447  0.69408959  0.86745399     1.55600
O41         O  0.44805075  0.72026668  0.83370422    -0.75800
C42         C  0.38777581  0.63898846  0.86420075     1.00100
C43         C  0.40520174  0.70577549  0.90785301     0.95000
O44         O  0.42021474  0.71933495  0.89559553    -0.81100
O45         O  0.72936893  0.55975929  0.09378040    -0.80500
C46         C  0.69431012  0.60094302  0.17825893     0.98800
O47         O  0.69583583  0.61332447  0.15940349    -0.69700
O48         O  0.74091603  0.61166119  0.14081866    -0.73200
Al49       Al  0.70809544  0.60390272  0.12915574     1.49000
C50         C  0.76205577  0.60162215  0.13564552     0.94100
O51         O  0.74811400  0.54389323  0.15574681    -0.79500
O52         O  0.67840680  0.53266105  0.12884984    -0.73000
Al53       Al  0.73740794  0.55252381  0.12505874     1.90100
O54         O  0.70994198  0.53120025  0.16718128    -0.72100
O55         O  0.65827618  0.57635471  0.14335535    -0.71900
O56         O  0.69404998  0.57683927  0.17820803    -0.77600
O57         O  0.67454884  0.60105460  0.11674055    -0.75800
O58         O  0.71084503  0.57077561  0.13552859    -1.11900
O59         O  0.71975026  0.60064426  0.09774810    -0.71100
C60         C  0.72438524  0.58139034  0.08507989     0.99600
C61         C  0.73399996  0.53222473  0.17007845     0.96000
Al62       Al  0.68710604  0.55553050  0.15285726     1.55600
O63         O  0.76262959  0.57980104  0.12617196    -0.75800
C64         C  0.65519565  0.59240558  0.12719696     1.00100
C65         C  0.69399983  0.51621564  0.12120461     0.95000
O66         O  0.71803088  0.52068866  0.12147056    -0.81100
O67         O  0.70230496  0.52986038  0.88001738    -0.80500
C68         C  0.68645233  0.61631324  0.82255901     0.98800
O69         O  0.67175971  0.59709165  0.82437373    -0.69700
O70         O  0.69541056  0.55347362  0.81881082    -0.73200
Al71       Al  0.67340251  0.56640748  0.84218765     1.49000
C72         C  0.71581122  0.54056540  0.82026483     0.94100
O73         O  0.75183316  0.57905673  0.85859440    -0.79500
O74         O  0.69655331  0.60054954  0.90074636    -0.73000
Al75       Al  0.72461934  0.55627249  0.86872947     1.90100
O76         O  0.73533075  0.61409324  0.87237397    -0.72100
O77         O  0.66291593  0.61557629  0.86896816    -0.71900
O78         O  0.70240472  0.62195236  0.83828536    -0.77600
O79         O  0.64722898  0.57760421  0.86308068    -0.75800
O80         O  0.69916643  0.57725795  0.86005941    -1.11900
O81         O  0.67001435  0.53377733  0.85600247    -0.71100
C82         C  0.68164744  0.52140727  0.87148524     0.99600
C83         C  0.75451933  0.60198068  0.86508805     0.96000
Al84       Al  0.69932895  0.61002264  0.86930056     1.55600
O85         O  0.72796834  0.53932141  0.83924093    -0.75800
C86         C  0.64387110  0.60070199  0.86854828     1.00100
C87         C  0.71113581  0.58494840  0.91115148     0.95000
O88         O  0.72515437  0.56920627  0.90005973    -0.81100
O89         O  0.56913803  0.27088398  0.09244526    -0.80500
C90         C  0.61626022  0.30541281  0.17511614     0.98800
O91         O  0.62800509  0.30280441  0.15591419    -0.69700
O92         O  0.62254425  0.25808040  0.13722551    -0.73200
Al93       Al  0.61633091  0.29114135  0.12569069     1.49000
C94         C  0.61050192  0.23761432  0.13379382     0.94100
O95         O  0.55409786  0.25603268  0.15546833    -0.79500
O96         O  0.54712086  0.32543210  0.12748799    -0.73000
Al97       Al  0.56264241  0.26502340  0.12427826     1.90100
O98         O  0.54484579  0.29518188  0.16602455    -0.72100
O99         O  0.59286482  0.34214303  0.14086360    -0.71900
O100        O  0.59211998  0.30713325  0.17559507    -0.77600
O101        O  0.61537856  0.32487639  0.11324978    -0.75800
O102        O  0.58324829  0.29052086  0.13336962    -1.11900
O103        O  0.61056724  0.27949736  0.09425506    -0.71100
C104        C  0.59052805  0.27434336  0.08257817     0.99600
C105        C  0.54346530  0.27137087  0.16935547     0.96000
Al106      Al  0.57037621  0.31540185  0.15088138     1.55600
O107        O  0.58800565  0.23809292  0.12559397    -0.75800
C108        C  0.60864117  0.34443724  0.12442431     1.00100
C109        C  0.52920836  0.31077850  0.12094823     0.95000
O110        O  0.53234321  0.28662269  0.12103131    -0.81100
O111        O  0.54531956  0.28913711  0.87161758    -0.80500
C112        C  0.63881399  0.29868130  0.82079894     0.98800
O113        O  0.61920699  0.31269901  0.81940536    -0.69700
O114        O  0.57766437  0.28614513  0.81024144    -0.73200
Al115      Al  0.58602914  0.31096903  0.83314424     1.49000
C116        C  0.56065864  0.26911860  0.81255010     0.94100
O117        O  0.59239189  0.23592658  0.85402690    -0.79500
O118        O  0.61218557  0.28971310  0.89788415    -0.73000
Al119      Al  0.57038634  0.26393936  0.86255094     1.90100
O120        O  0.62777498  0.25093629  0.86967399    -0.72100
O121        O  0.62952859  0.32373809  0.86766772    -0.71900
O122        O  0.64204221  0.28393129  0.83786350    -0.77600
O123        O  0.59356781  0.33868772  0.85320268    -0.75800
O124        O  0.59378056  0.28741480  0.85442026    -1.11900
O125        O  0.55093904  0.31473786  0.84200832    -0.71100
C126        C  0.53732243  0.30715188  0.85878181     0.99600
C127        C  0.61515844  0.23268111  0.86104468     0.96000
Al128      Al  0.62511192  0.28713261  0.86719885     1.55600
O129        O  0.55491885  0.26078996  0.83247550    -0.75800
C130        C  0.61472057  0.34232280  0.86337501     1.00100
C131        C  0.59581740  0.27502726  0.90711969     0.95000
O132        O  0.58050522  0.26212253  0.89468737    -0.81100
O133        O  0.28404787  0.42718645  0.09368804    -0.80500
C134        C  0.31307114  0.37930239  0.17793916     0.98800
O135        O  0.31161473  0.36851437  0.15830380    -0.69700
O136        O  0.26703942  0.37415787  0.13829827    -0.73200
Al137      Al  0.30083853  0.38054148  0.12825441     1.49000
C138        C  0.24683839  0.38562242  0.13234729     0.94100
O139        O  0.26283241  0.44290564  0.15519034    -0.79500
O140        O  0.33467359  0.44961123  0.13348048    -0.73000
Al141      Al  0.27493923  0.43393477  0.12487131     1.90100
O142        O  0.30098805  0.45081685  0.16963741    -0.72100
O143        O  0.35062533  0.40427407  0.14622451    -0.71900
O144        O  0.31301688  0.40338524  0.17938234    -0.77600
O145        O  0.33509900  0.38264472  0.11712202    -0.75800
O146        O  0.29946465  0.41343224  0.13608433    -1.11900
O147        O  0.29058936  0.38570493  0.09679855    -0.71100
C148        C  0.28744111  0.40550519  0.08454641     0.99600
C149        C  0.27688487  0.45292299  0.17055272     0.96000
Al150      Al  0.32280312  0.42596338  0.15548181     1.55600
O151        O  0.24798875  0.40812406  0.12418029    -0.75800
C152        C  0.35409785  0.38988979  0.12895035     1.00100
C153        C  0.32107199  0.46725074  0.12506381     0.95000
O154        O  0.29690785  0.46433679  0.12293436    -0.81100
O155        O  0.29945579  0.45297553  0.87991200    -0.80500
C156        C  0.31419788  0.36776574  0.82077771     0.98800
O157        O  0.32952767  0.38646511  0.82297144    -0.69700
O158        O  0.30605275  0.42994789  0.81868611    -0.73200
Al159      Al  0.32817337  0.41694369  0.84150296     1.49000
C160        C  0.28526270  0.44213800  0.82001421     0.94100
O161        O  0.24996337  0.40486294  0.85816972    -0.79500
O162        O  0.30528430  0.38192967  0.89957352    -0.73000
Al163      Al  0.27715036  0.42698010  0.86841654     1.90100
O164        O  0.26583812  0.36933196  0.87151177    -0.72100
O165        O  0.33859151  0.36719281  0.86693085    -0.71900
O166        O  0.29834286  0.36199397  0.83659618    -0.77600
O167        O  0.35436793  0.40531597  0.86201556    -0.75800
O168        O  0.30243176  0.40597276  0.85933032    -1.11900
O169        O  0.33184765  0.44940280  0.85592687    -0.71100
C170        C  0.32022935  0.46139688  0.87169570     0.99600
C171        C  0.24685402  0.38207264  0.86462277     0.96000
Al172      Al  0.30201899  0.37305849  0.86793798     1.55600
O173        O  0.27343593  0.44405111  0.83909758    -0.75800
C174        C  0.35776357  0.38198910  0.86651619     1.00100
C175        C  0.29110899  0.39768781  0.91031568     0.95000
O176        O  0.27691604  0.41355783  0.89955197    -0.81100
O177        O  0.72583155  0.42667853  0.39831611    -0.80500
C178        C  0.69107184  0.37446362  0.31833523     0.98800
O179        O  0.69313412  0.36490675  0.33844178    -0.69700
O180        O  0.73925201  0.37103539  0.35495821    -0.73200
Al181      Al  0.70655002  0.37849435  0.36704738     1.49000
C182        C  0.76000542  0.38252968  0.35904714     0.94100
O183        O  0.74351239  0.43921959  0.33528113    -0.79500
O184        O  0.67320447  0.44791802  0.36044329    -0.73000
Al185      Al  0.73322067  0.43156552  0.36643186     1.90100
O186        O  0.70459111  0.44646831  0.32246171    -0.72100
O187        O  0.65601598  0.40168819  0.35069729    -0.71900
O188        O  0.69135233  0.39844241  0.31551768    -0.77600
O189        O  0.67316440  0.38182607  0.38018421    -0.75800
O190        O  0.70776297  0.41088813  0.35750279    -1.11900
O191        O  0.71983490  0.38512320  0.39761646    -0.71100
C192        C  0.72358667  0.40561943  0.40881442     0.99600
C193        C  0.72861050  0.44922538  0.32057534     0.96000
Al194      Al  0.68334852  0.42265408  0.33885716     1.55600
O195        O  0.75978894  0.40534288  0.36657916    -0.75800
C196        C  0.65353891  0.38814692  0.36872517     1.00100
C197        C  0.68779912  0.46533382  0.36801815     0.95000
O198        O  0.71199664  0.46214114  0.36831499    -0.81100
O199        O  0.70847922  0.44663911  0.61919236    -0.80500
C200        C  0.69611238  0.35489365  0.67060965     0.98800
O201        O  0.68166538  0.37429910  0.67113957    -0.69700
O202        O  0.70579975  0.41677642  0.67991770    -0.73200
Al203      Al  0.68274353  0.40679765  0.65630672     1.49000
C204        C  0.72466560  0.43182070  0.67878023     0.94100
O205        O  0.75967981  0.39837897  0.63790013    -0.79500
O206        O  0.70478819  0.38026950  0.59352457    -0.73000
Al207      Al  0.73224885  0.42101562  0.62900327     1.90100
O208        O  0.74412214  0.36436934  0.62084533    -0.72100
O209        O  0.67126487  0.36139931  0.62408239    -0.71900
O210        O  0.71136108  0.35109106  0.65386217    -0.77600
O211        O  0.65587018  0.39800856  0.63561463    -0.75800
O212        O  0.70761873  0.39846901  0.63650085    -1.11900
O213        O  0.67862079  0.44081742  0.64556278    -0.71100
C214        C  0.68824139  0.45384955  0.62934414     0.99600
C215        C  0.76284383  0.37628401  0.62949508     0.96000
Al216      Al  0.70789549  0.36707770  0.62411023     1.55600
O217        O  0.73518529  0.43641285  0.65941524    -0.75800
C218        C  0.65232661  0.37604847  0.62724151     1.00100
C219        C  0.71994280  0.39627882  0.58425588     0.95000
O220        O  0.73396815  0.41056568  0.59682429    -0.81100
O221        O  0.56542376  0.70675533  0.39971719    -0.80500
C222        C  0.61653913  0.67463517  0.31829521     0.98800
O223        O  0.62612162  0.67666033  0.33833573    -0.69700
O224        O  0.62013101  0.72228301  0.35568986    -0.73200
Al225      Al  0.61301906  0.68924135  0.36705111     1.49000
C226        C  0.60882400  0.74275298  0.36104801     0.94100
O227        O  0.55164657  0.72692849  0.33770252    -0.79500
O228        O  0.54334829  0.65603218  0.36000575    -0.73000
Al229      Al  0.55976248  0.71544157  0.36827600     1.90100
O230        O  0.54454513  0.68869131  0.32330916    -0.72100
O231        O  0.58942626  0.63944464  0.34977805    -0.71900
O232        O  0.59251860  0.67555906  0.31542937    -0.77600
O233        O  0.60986445  0.65554497  0.37945148    -0.75800
O234        O  0.58038833  0.69059792  0.35806916    -1.11900
O235        O  0.60707554  0.70154635  0.39760765    -0.71100
C236        C  0.58695714  0.70451565  0.40951694     0.99600
C237        C  0.54194626  0.71266851  0.32236562     0.96000
Al238      Al  0.56841858  0.66695460  0.33877201     1.55600
O239        O  0.58606585  0.74203622  0.36895664    -0.75800
C240        C  0.60324136  0.63635696  0.36756709     1.00100
C241        C  0.52577902  0.67004325  0.36804637     0.95000
O242        O  0.52907476  0.69406478  0.36987436    -0.81100
O243        O  0.54561817  0.69232664  0.61711514    -0.80500
C244        C  0.63423160  0.66813782  0.66939971     0.98800
O245        O  0.61327867  0.65580262  0.66966386    -0.69700
O246        O  0.57310398  0.68413441  0.67824161    -0.73200
Al247      Al  0.58111151  0.66080606  0.65428537     1.49000
C248        C  0.56026855  0.70449671  0.67713619     0.94100
O249        O  0.59929552  0.73631204  0.63801876    -0.79500
O250        O  0.61164892  0.68084244  0.59292749    -0.73000
Al251      Al  0.57372811  0.71227839  0.62796407     1.90100
O252        O  0.63181785  0.71777946  0.62102060    -0.72100
O253        O  0.62581951  0.64537107  0.62277588    -0.71900
O254        O  0.63989180  0.68312209  0.65302002    -0.77600
O255        O  0.58733983  0.63354419  0.63325113    -0.75800
O256        O  0.59289628  0.68501851  0.63525665    -1.11900
O257        O  0.54681916  0.66109178  0.64265298    -0.71100
C258        C  0.53546533  0.67310489  0.62667600     0.99600
C259        C  0.62215932  0.73713571  0.63071072     0.96000
Al260      Al  0.62448171  0.68204389  0.62338051     1.55600
O261        O  0.55789044  0.71607946  0.65798112    -0.75800
C262        C  0.60914962  0.62807196  0.62526430     1.00100
C263        C  0.59772860  0.69782212  0.58373864     0.95000
O264        O  0.58524841  0.71353135  0.59619480    -0.81100
O265        O  0.27753681  0.55520856  0.40101000    -0.80500
C266        C  0.31834514  0.60140707  0.32045567     0.98800
O267        O  0.31332336  0.61326866  0.33915262    -0.69700
O268        O  0.26641166  0.60851181  0.35466629    -0.73200
Al269      Al  0.29850600  0.60211915  0.36842093     1.49000
C270        C  0.24545082  0.59812876  0.35996899     0.94100
O271        O  0.26344631  0.54179373  0.33781299    -0.79500
O272        O  0.33092275  0.53180662  0.36935621    -0.73000
Al273      Al  0.27154728  0.54929848  0.36935979     1.90100
O274        O  0.30302154  0.53115649  0.32861715    -0.72100
O275        O  0.35049274  0.57617715  0.35806441    -0.71900
O276        O  0.31926773  0.57732320  0.32022159    -0.77600
O277        O  0.33096399  0.60085964  0.38310029    -0.75800
O278        O  0.29802051  0.56907457  0.36114727    -1.11900
O279        O  0.28393714  0.59689622  0.39907231    -0.71100
C280        C  0.27974193  0.57669734  0.41081819     0.99600
C281        C  0.27918735  0.53108903  0.32421209     0.96000
Al282      Al  0.32380768  0.55525182  0.34545738     1.55600
O283        O  0.24535535  0.57578244  0.36842487    -0.75800
C284        C  0.35130590  0.59240656  0.37420981     1.00100
C285        C  0.31548790  0.51439313  0.37517586     0.95000
O286        O  0.29145784  0.51781993  0.37285706    -0.81100
O287        O  0.30080002  0.53558086  0.61770886    -0.80500
C288        C  0.31284415  0.62577889  0.67094335     0.98800
O289        O  0.32737357  0.60633941  0.67176943    -0.69700
O290        O  0.30355735  0.56309658  0.67986153    -0.73200
Al291      Al  0.32648291  0.57370605  0.65625476     1.49000
C292        C  0.28518132  0.54751905  0.67819754     0.94100
O293        O  0.24978697  0.58239426  0.63974576    -0.79500
O294        O  0.30367663  0.60062328  0.59382680    -0.73000
Al295      Al  0.27685108  0.56008957  0.62920174     1.90100
O296        O  0.26481931  0.61636189  0.62199714    -0.72100
O297        O  0.33757053  0.61924652  0.62385219    -0.71900
O298        O  0.29805673  0.62957325  0.65394645    -0.77600
O299        O  0.35323314  0.58287764  0.63556543    -0.75800
O300        O  0.30152152  0.58240742  0.63673532    -1.11900
O301        O  0.33048330  0.53962272  0.64445710    -0.71100
C302        C  0.32110143  0.52766062  0.62734067     0.99600
C303        C  0.24641907  0.60450868  0.63133881     0.96000
Al304      Al  0.30109730  0.61373616  0.62443183     1.55600
O305        O  0.27503433  0.54324697  0.65871084    -0.75800
C306        C  0.35654888  0.60460311  0.62666093     1.00100
C307        C  0.28745789  0.58547382  0.58492398     0.95000
O308        O  0.27344306  0.57161542  0.59776865    -0.81100
O309        O  0.43928540  0.26975723  0.39869268    -0.80500
C310        C  0.39005143  0.30787645  0.31903137     0.98800
O311        O  0.37953003  0.30537482  0.33871547    -0.69700
O312        O  0.38473902  0.25935538  0.35414530    -0.73200
Al313      Al  0.39192938  0.29135340  0.36737210     1.49000
C314        C  0.39619323  0.23845012  0.35703648     0.94100
O315        O  0.45258745  0.25600024  0.33555534    -0.79500
O316        O  0.46218745  0.32427166  0.36463422    -0.73000
Al317      Al  0.44487042  0.26431103  0.36686022     1.90100
O318        O  0.46190157  0.29527798  0.32515424    -0.72100
O319        O  0.41618534  0.34231592  0.35369340    -0.71900
O320        O  0.41422812  0.30893870  0.31727349    -0.77600
O321        O  0.39455466  0.32416160  0.38157691    -0.75800
O322        O  0.42472729  0.29044695  0.35879226    -1.11900
O323        O  0.39779564  0.27721790  0.39754030    -0.71100
C324        C  0.41802489  0.27236290  0.40887657     0.99600
C325        C  0.46319791  0.27145260  0.32177462     0.96000
Al326      Al  0.43755015  0.31565815  0.34167790     1.55600
O327        O  0.41869397  0.23809774  0.36528149    -0.75800
C328        C  0.40140140  0.34412442  0.37096239     1.00100
C329        C  0.47939011  0.30888232  0.37135156     0.95000
O330        O  0.47568694  0.28487916  0.37025684    -0.81100
O331        O  0.46109336  0.29220565  0.61339304    -0.80500
C332        C  0.37278745  0.31275374  0.66831375     0.98800
O333        O  0.39241466  0.32699997  0.66630233    -0.69700
O334        O  0.43544266  0.30250304  0.67471622    -0.73200
Al335      Al  0.42429972  0.32336311  0.64973532     1.49000
C336        C  0.44914048  0.28258272  0.67415213     0.94100
O337        O  0.41221978  0.24548493  0.63837592    -0.79500
O338        O  0.39230255  0.29664293  0.59146633    -0.73000
Al339      Al  0.43491637  0.27095678  0.62614335     1.90100
O340        O  0.37741675  0.25981238  0.62180218    -0.72100
O341        O  0.37639152  0.33246195  0.62067186    -0.71900
O342        O  0.36791684  0.29556541  0.65347472    -0.77600
O343        O  0.41466027  0.34807647  0.62682853    -0.75800
O344        O  0.41376880  0.29683480  0.63288517    -1.11900
O345        O  0.45812255  0.32493837  0.63703494    -0.71100
C346        C  0.47033972  0.31244263  0.62190443     0.99600
C347        C  0.38967688  0.24185700  0.63122734     0.96000
Al348      Al  0.38134297  0.29614225  0.62268887     1.55600
O349        O  0.45169589  0.27022098  0.65550045    -0.75800
C350        C  0.39172954  0.35115844  0.62039415     1.00100
C351        C  0.40770987  0.28076281  0.58246165     0.95000
O352        O  0.42226854  0.26709206  0.59503280    -0.81100
O353        O  0.93998432  0.20937515  0.59055299    -0.80500
C354        C  0.89456425  0.17065982  0.67188109     0.98800
O355        O  0.88249039  0.17549016  0.65329231    -0.69700
O356        O  0.88697129  0.22205633  0.63713565    -0.73200
Al357      Al  0.89330829  0.18949083  0.62388161     1.49000
C358        C  0.89779642  0.24259968  0.63129784     0.94100
O359        O  0.95410351  0.22517066  0.65323740    -0.79500
O360        O  0.96422711  0.15747095  0.62255671    -0.73000
Al361      Al  0.94626996  0.21630613  0.62194028     1.90100
O362        O  0.96480395  0.18600351  0.66325010    -0.72100
O363        O  0.91970238  0.13773265  0.63434418    -0.71900
O364        O  0.91871631  0.16933524  0.67190552    -0.77600
O365        O  0.89448153  0.15676768  0.60963218    -0.75800
O366        O  0.92656726  0.19010583  0.63082652    -1.11900
O367        O  0.89821827  0.20308412  0.59314307    -0.71100
C368        C  0.91833453  0.20648520  0.58105022     0.99600
C369        C  0.96485138  0.20989288  0.66721004     0.96000
Al370      Al  0.94072453  0.16469802  0.64663505     1.55600
O371        O  0.91999075  0.24212897  0.62252037    -0.75800
C372        C  0.90324814  0.13648705  0.61830815     1.00100
C373        C  0.98106650  0.17309242  0.61573580     0.95000
O374        O  0.97766991  0.19689666  0.61844077    -0.81100
O375        O  0.96327550  0.19235802  0.37377769    -0.80500
C376        C  0.87415899  0.17861432  0.32011745     0.98800
O377        O  0.89276098  0.16304408  0.32055138    -0.69700
O378        O  0.93572978  0.18696275  0.31306012    -0.73200
Al379      Al  0.92480551  0.16433704  0.33661454     1.49000
C380        C  0.94947318  0.20674263  0.31441851     0.94100
O381        O  0.91317929  0.24116809  0.35366592    -0.79500
O382        O  0.89569188  0.18556077  0.39758945    -0.73000
Al383      Al  0.93663993  0.21475764  0.36341011     1.90100
O384        O  0.87956262  0.22513790  0.37091643    -0.72100
O385        O  0.87780730  0.15262708  0.36670809    -0.71900
O386        O  0.86910501  0.19302896  0.33709581    -0.77600
O387        O  0.91539474  0.13757528  0.35738700    -0.75800
O388        O  0.91522795  0.18933381  0.35570695    -1.11900
O389        O  0.95846560  0.16112906  0.34866043    -0.71100
C390        C  0.97132803  0.17210634  0.36428115     0.99600
C391        C  0.89082944  0.24392669  0.36177478     0.96000
Al392      Al  0.88332280  0.18908210  0.36711928     1.55600
O393        O  0.95247156  0.21798107  0.33360642    -0.75800
C394        C  0.89297879  0.13394550  0.36490614     1.00100
C395        C  0.91112212  0.20104698  0.40710183     0.95000
O396        O  0.92511671  0.21602617  0.39516721    -0.81100
O397        O  0.06949750  0.77477892  0.59019577    -0.80500
C398        C  0.12053495  0.80703398  0.67148722     0.98800
O399        O  0.13079823  0.80492867  0.65167634    -0.69700
O400        O  0.12437691  0.75964898  0.63401550    -0.73200
Al401      Al  0.11761585  0.79263772  0.62257458     1.49000
C402        C  0.11275435  0.73926950  0.62909418     0.94100
O403        O  0.05641785  0.75555158  0.65287113    -0.79500
O404        O  0.04736237  0.82607761  0.62878454    -0.73000
Al405      Al  0.06410094  0.76652700  0.62181392     1.90100
O406        O  0.04885582  0.79411093  0.66625048    -0.72100
O407        O  0.09400775  0.84321820  0.63886045    -0.71900
O408        O  0.09644596  0.80743020  0.67362814    -0.77600
O409        O  0.11538082  0.82621905  0.61014596    -0.75800
O410        O  0.08481766  0.79166151  0.63142207    -1.11900
O411        O  0.11121459  0.78054052  0.59170786    -0.71100
C412        C  0.09085979  0.77735276  0.58005327     0.99600
C413        C  0.04668377  0.77010316  0.66802383     0.96000
Al414      Al  0.07270440  0.81570643  0.65021995     1.55600
O415        O  0.09013528  0.73999685  0.62105528    -0.75800
C416        C  0.10881047  0.84568182  0.62159446     1.00100
C417        C  0.02966054  0.81148773  0.62172871     0.95000
O418        O  0.03327949  0.78751571  0.62030029    -0.81100
O419        O  0.04569087  0.79227702  0.37085958    -0.80500
C420        C  0.13722769  0.80641868  0.31811844     0.98800
O421        O  0.11682237  0.81941371  0.31707688    -0.69700
O422        O  0.07614468  0.79111921  0.30913430    -0.73200
Al423      Al  0.08401165  0.81635515  0.33157542     1.49000
C424        C  0.06021347  0.77314500  0.31175929     0.94100
O425        O  0.09501021  0.74156120  0.35318129    -0.79500
O426        O  0.11235907  0.79817254  0.39521469    -0.73000
Al427      Al  0.07183469  0.76859600  0.36146727     1.90100
O428        O  0.12955247  0.75870335  0.36830998    -0.72100
O429        O  0.12813657  0.83158796  0.36405067    -0.71900
O430        O  0.14142452  0.79156316  0.33498628    -0.77600
O431        O  0.09075936  0.84470058  0.35133038    -0.75800
O432        O  0.09360068  0.79327109  0.35257822    -1.11900
O433        O  0.04903579  0.81838400  0.34136389    -0.71100
C434        C  0.03633853  0.80985983  0.35836671     0.99600
C435        C  0.11759665  0.73929126  0.36095482     0.96000
Al436      Al  0.12514560  0.79484196  0.36463325     1.55600
O437        O  0.05582346  0.76421565  0.33175213    -0.75800
C438        C  0.11227195  0.84946534  0.36044201     1.00100
C439        C  0.09715217  0.78274873  0.40504304     0.95000
O440        O  0.08296533  0.76805695  0.39318403    -0.81100
O441        O  0.77917042  0.92636656  0.59253355    -0.80500
C442        C  0.81944695  0.87738670  0.67152707     0.98800
O443        O  0.81549088  0.86673052  0.65209014    -0.69700
O444        O  0.76892570  0.87174124  0.63722873    -0.73200
Al445      Al  0.80085710  0.87889202  0.62352305     1.49000
C446        C  0.74788942  0.88255266  0.63321860     0.94100
O447        O  0.76599933  0.93946762  0.65596140    -0.79500
O448        O  0.83386190  0.94880248  0.62497713    -0.73000
Al449      Al  0.77383786  0.93173489  0.62432290     1.90100
O450        O  0.80575229  0.94884454  0.66535845    -0.72100
O451        O  0.85265053  0.90352072  0.63560489    -0.71900
O452        O  0.82049488  0.90147629  0.67311610    -0.77600
O453        O  0.83342941  0.88096264  0.60883246    -0.75800
O454        O  0.80024408  0.91162618  0.63199873    -1.11900
O455        O  0.78629605  0.88492477  0.59323684    -0.71100
C456        C  0.78189363  0.90538308  0.58206954     0.99600
C457        C  0.78189265  0.95036294  0.66928062     0.96000
Al458      Al  0.82604915  0.92459661  0.64835049     1.55600
O459        O  0.74742016  0.90526210  0.62554418    -0.75800
C460        C  0.85372017  0.88833839  0.61862177     1.00100
C461        C  0.81845252  0.96599523  0.61843951     0.95000
O462        O  0.79436457  0.96274695  0.62066446    -0.81100
O463        O  0.79598693  0.94983363  0.37286334    -0.80500
C464        C  0.81121698  0.85942562  0.32086312     0.98800
O465        O  0.82639461  0.87847920  0.32130225    -0.69700
O466        O  0.80426216  0.92250453  0.31365878    -0.73200
Al467      Al  0.82567742  0.91054259  0.33773648     1.49000
C468        C  0.78374953  0.93525092  0.31402317     0.94100
O469        O  0.74731686  0.89896238  0.35385634    -0.79500
O470        O  0.80279105  0.88219973  0.39810461    -0.73000
Al471      Al  0.77400584  0.92264349  0.36294194     1.90100
O472        O  0.76328059  0.86590222  0.37163334    -0.72100
O473        O  0.83578516  0.86304213  0.36705739    -0.71900
O474        O  0.79578794  0.85491432  0.33738531    -0.77600
O475        O  0.85173252  0.90036198  0.35909760    -0.75800
O476        O  0.79968096  0.90119694  0.35595797    -1.11900
O477        O  0.82951608  0.94395743  0.35047718    -0.71100
C478        C  0.81735289  0.95730887  0.36502617     0.99600
C479        C  0.74432750  0.87712507  0.36280291     0.96000
Al480      Al  0.79941414  0.86941740  0.36755148     1.55600
O481        O  0.77098807  0.93736540  0.33257678    -0.75800
C482        C  0.85496078  0.87764931  0.36566421     1.00100
C483        C  0.78773528  0.89831796  0.40738944     0.95000
O484        O  0.77300703  0.91213441  0.39500754    -0.81100
O485        O  0.22712647  0.06169433  0.59116957    -0.80500
C486        C  0.18681018  0.10785511  0.67201173     0.98800
O487        O  0.18965109  0.11883857  0.65254692    -0.69700
O488        O  0.23632819  0.11603814  0.63683648    -0.73200
Al489      Al  0.20447015  0.10753697  0.62359337     1.49000
C490        C  0.25778827  0.10605062  0.63268966     0.94100
O491        O  0.24316833  0.04910433  0.65441305    -0.79500
O492        O  0.17502552  0.03585982  0.62563116    -0.73000
Al493      Al  0.23388814  0.05619189  0.62307680     1.90100
O494        O  0.20434506  0.03760443  0.66520721    -0.72100
O495        O  0.15438177  0.08021609  0.63647125    -0.71900
O496        O  0.18723479  0.08376933  0.67333319    -0.77600
O497        O  0.17200378  0.10340354  0.60933801    -0.75800
O498        O  0.20687150  0.07483819  0.63171463    -1.11900
O499        O  0.21877542  0.10281444  0.59307143    -0.71100
C500        C  0.22350856  0.08294439  0.58120924     0.99600
C501        C  0.22831131  0.03819135  0.66862458     0.96000
Al502      Al  0.18226787  0.06053789  0.64868582     1.55600
O503        O  0.25883926  0.08377103  0.62409584    -0.75800
C504        C  0.15218883  0.09487921  0.61920612     1.00100
C505        C  0.19108592  0.01927347  0.61912051     0.95000
O506        O  0.21501095  0.02402714  0.62011436    -0.81100
O507        O  0.20803137  0.03389040  0.37292913    -0.80500
C508        C  0.19316393  0.12291551  0.31804793     0.98800
O509        O  0.17928570  0.10302901  0.31755845    -0.69700
O510        O  0.20590614  0.06162422  0.31104669    -0.73200
Al511      Al  0.18160249  0.07089767  0.33354748     1.49000
C512        C  0.22485891  0.04689980  0.31306794     0.94100
O513        O  0.25719680  0.08417471  0.35275198    -0.79500
O514        O  0.20018633  0.10069989  0.39589630    -0.73000
Al515      Al  0.23088445  0.06029803  0.36244569     1.90100
O516        O  0.23943393  0.11748274  0.36891025    -0.72100
O517        O  0.16708233  0.11636911  0.36431867    -0.71900
O518        O  0.20737754  0.12780147  0.33522119    -0.77600
O519        O  0.15367112  0.07872231  0.35323947    -0.75800
O520        O  0.20530626  0.08112011  0.35372965    -1.11900
O521        O  0.17908168  0.03699647  0.34530086    -0.71100
C522        C  0.18866037  0.02513939  0.36229317     0.99600
C523        C  0.25874261  0.10706761  0.35980150     0.96000
Al524      Al  0.20365277  0.11280137  0.36514080     1.55600
O525        O  0.23502638  0.04336160  0.33275628    -0.75800
C526        C  0.14910349  0.10054352  0.36140733     1.00100
C527        C  0.21644192  0.08659670  0.40597301     0.95000
O528        O  0.23163697  0.07260741  0.39423549    -0.81100
O529        O  0.79928998  0.03744376  0.11605609    -0.80500
C530        C  0.82032551  0.12693148  0.16833051     0.98800
O531        O  0.83378279  0.10670556  0.16785517    -0.69700
O532        O  0.80947901  0.06366342  0.17693113    -0.73200
Al533      Al  0.83064097  0.07462205  0.15194737     1.49000
C534        C  0.78952891  0.04994819  0.17644196     0.94100
O535        O  0.75272399  0.08751752  0.13967036    -0.79500
O536        O  0.80552434  0.10367636  0.09231176    -0.73000
Al537      Al  0.77801091  0.06389075  0.12813259     1.90100
O538        O  0.76818595  0.12080277  0.12164964    -0.72100
O539        O  0.84083217  0.12124348  0.12114821    -0.71900
O540        O  0.80368763  0.13154052  0.15289430    -0.77600
O541        O  0.85608386  0.08366293  0.12955545    -0.75800
O542        O  0.80437165  0.08479171  0.13450376    -1.11900
O543        O  0.83251194  0.04108291  0.13932512    -0.71100
C544        C  0.82025601  0.02903371  0.12392937     0.99600
C545        C  0.74981460  0.10991392  0.13191053     0.96000
Al546      Al  0.80445044  0.11649728  0.12291502     1.55600
O547        O  0.77688629  0.04772640  0.15787113    -0.75800
C548        C  0.85952019  0.10603807  0.12209576     1.00100
C549        C  0.78952364  0.08815084  0.08365773     0.95000
O550        O  0.77433318  0.07543877  0.09648957    -0.81100
O551        O  0.78397266  0.05511993  0.89888669    -0.80500
C552        C  0.82259872  0.10280182  0.81843370     0.98800
O553        O  0.82097336  0.11343355  0.83815692    -0.69700
O554        O  0.77481947  0.11106963  0.85526638    -0.73200
Al555      Al  0.80702734  0.10155686  0.86726764     1.49000
C556        C  0.75334672  0.10109090  0.85948878     0.94100
O557        O  0.76687831  0.04408742  0.83567712    -0.79500
O558        O  0.83568489  0.02997410  0.86319709    -0.73000
Al559      Al  0.77683967  0.05049531  0.86703010     1.90100
O560        O  0.80527256  0.03218409  0.82426760    -0.72100
O561        O  0.85644948  0.07466666  0.85211610    -0.71900
O562        O  0.82189032  0.07874614  0.81654588    -0.77600
O563        O  0.83997547  0.09667163  0.88052877    -0.75800
O564        O  0.80388385  0.06912976  0.85839609    -1.11900
O565        O  0.79364200  0.09599719  0.89791517    -0.71100
C566        C  0.78818381  0.07595906  0.90928795     0.99600
C567        C  0.78125412  0.03301408  0.82119902     0.96000
Al568      Al  0.82786534  0.05504955  0.84058484     1.55600
O569        O  0.75220898  0.07829916  0.86689865    -0.75800
C570        C  0.85939223  0.08898037  0.86956767     1.00100
C571        C  0.81961148  0.01350747  0.87010074     0.95000
O572        O  0.79567060  0.01829792  0.86933827    -0.81100
O573        O  0.95986206  0.79519326  0.11614484    -0.80500
C574        C  0.86901326  0.81348573  0.16805942     0.98800
O575        O  0.88915260  0.82704669  0.16808943    -0.69700
O576        O  0.93006865  0.79992461  0.17780485    -0.73200
Al577      Al  0.92193783  0.82312683  0.15352843     1.49000
C578        C  0.94459383  0.78067575  0.17644756     0.94100
O579        O  0.90982345  0.74705584  0.13733619    -0.79500
O580        O  0.89376055  0.80040110  0.09119361    -0.73000
Al581      Al  0.93343425  0.77281639  0.12703506     1.90100
O582        O  0.87586416  0.76309251  0.12055869    -0.72100
O583        O  0.87760485  0.83572976  0.12040933    -0.71900
O584        O  0.86456315  0.79800797  0.15170432    -0.77600
O585        O  0.91508906  0.84969378  0.13182382    -0.75800
O586        O  0.91212505  0.79841535  0.13418157    -1.11900
O587        O  0.95674726  0.82438195  0.14321917    -0.71100
C588        C  0.96913555  0.81420336  0.12679667     0.99600
C589        C  0.88699921  0.74456145  0.13031159     0.96000
Al590      Al  0.88066170  0.79922089  0.12194638     1.55600
O591        O  0.94896704  0.77042388  0.15700411    -0.75800
C592        C  0.89352079  0.85380137  0.12259190     1.00100
C593        C  0.90924504  0.78453281  0.08233096     0.95000
O594        O  0.92255936  0.77003958  0.09520590    -0.81100
O595        O  0.93861621  0.76791307  0.89668262    -0.80500
C596        C  0.88901407  0.80075446  0.81489795     0.98800
O597        O  0.87781036  0.79756688  0.83426103    -0.69700
O598        O  0.88383618  0.75244278  0.85263762    -0.73200
Al599      Al  0.89032410  0.78570931  0.86403649     1.49000
C600        C  0.89520432  0.73215099  0.85815930     0.94100
O601        O  0.95142151  0.74991941  0.83363151    -0.79500
O602        O  0.96043282  0.81980966  0.86062558    -0.73000
Al603      Al  0.94402430  0.76004157  0.86500255     1.90100
O604        O  0.96043308  0.78892633  0.82189215    -0.72100
O605        O  0.91438361  0.83713404  0.84934211    -0.71900
O606        O  0.91311943  0.80254854  0.81391395    -0.77600
O607        O  0.89146787  0.81935462  0.87655652    -0.75800
O608        O  0.92330776  0.78529038  0.85577784    -1.11900
O609        O  0.89684285  0.77403154  0.89532757    -0.71100
C610        C  0.91736532  0.77102084  0.90694145     0.99600
C611        C  0.96170469  0.76494161  0.81909854     0.96000
Al612      Al  0.93597983  0.81004327  0.83802228     1.55600
O613        O  0.91797574  0.73311752  0.86586610    -0.75800
C614        C  0.89885823  0.83916413  0.86607218     1.00100
C615        C  0.97841644  0.80526770  0.86708014     0.95000
O616        O  0.97517920  0.78112714  0.86675844    -0.81100
O617        O  0.20819693  0.95025394  0.11331911    -0.80500
C618        C  0.19385756  0.86062351  0.16680555     0.98800
O619        O  0.17832744  0.87930149  0.16599912    -0.69700
O620        O  0.20105005  0.92313998  0.17356053    -0.73200
Al621      Al  0.17938537  0.91131119  0.14944945     1.49000
C622        C  0.22122193  0.93646063  0.17268527     0.94100
O623        O  0.25754032  0.90052329  0.13356332    -0.79500
O624        O  0.20304868  0.88170432  0.08919270    -0.73000
Al625      Al  0.23064981  0.92370335  0.12378634     1.90100
O626        O  0.24185568  0.86671005  0.11673240    -0.72100
O627        O  0.16968003  0.86373893  0.12010145    -0.71900
O628        O  0.20929252  0.85607707  0.15037229    -0.77600
O629        O  0.15355331  0.90112709  0.12787771    -0.75800
O630        O  0.20530956  0.90199030  0.13112309    -1.11900
O631        O  0.17558854  0.94478789  0.13686207    -0.71100
C632        C  0.18716760  0.95789221  0.12173547     0.99600
C633        C  0.26047591  0.87807451  0.12593374     0.96000
Al634      Al  0.20590964  0.86997049  0.12004838     1.55600
O635        O  0.23333615  0.93903173  0.15383192    -0.75800
C636        C  0.15061470  0.87848420  0.12095815     1.00100
C637        C  0.21778894  0.89804983  0.07988469     0.95000
O638        O  0.23197589  0.91273516  0.09191334    -0.81100
O639        O  0.22486509  0.93039802  0.89677290    -0.80500
C640        C  0.18760440  0.88610441  0.81411474     0.98800
O641        O  0.19140023  0.87421181  0.83295382    -0.69700
O642        O  0.23720686  0.87807917  0.85040953    -0.73200
Al643      Al  0.20421976  0.88462811  0.86270580     1.49000
C644        C  0.25802065  0.88880099  0.85565561     0.94100
O645        O  0.24085958  0.94619946  0.83435344    -0.79500
O646        O  0.17185098  0.95548994  0.86326982    -0.73000
Al647      Al  0.23157693  0.93735940  0.86534304     1.90100
O648        O  0.20168507  0.95672274  0.82394396    -0.72100
O649        O  0.15304523  0.91036635  0.84990397    -0.71900
O650        O  0.18655413  0.91024011  0.81377373    -0.77600
O651        O  0.17053883  0.88561745  0.87582153    -0.75800
O652        O  0.20533308  0.91785707  0.85588471    -1.11900
O653        O  0.21682789  0.88908952  0.89372369    -0.71100
C654        C  0.22147694  0.90871973  0.90595659     0.99600
C655        C  0.22570350  0.95769815  0.82079329     0.96000
Al656      Al  0.18035550  0.93201242  0.83925078     1.55600
O657        O  0.25782554  0.91108697  0.86418101    -0.75800
C658        C  0.15078900  0.89343309  0.86537583     1.00100
C659        C  0.18738933  0.97257192  0.86998806     0.95000
O660        O  0.21142489  0.96849021  0.86907717    -0.81100
O661        O  0.04835122  0.19072435  0.11566627    -0.80500
C662        C  0.13958416  0.18106724  0.16833026     0.98800
O663        O  0.12019188  0.16651483  0.16940101    -0.69700
O664        O  0.07790940  0.19162407  0.17752112    -0.73200
Al665      Al  0.08726128  0.16745641  0.15472197     1.49000
C666        C  0.06154708  0.20919534  0.17542504     0.94100
O667        O  0.09518534  0.24276090  0.13501231    -0.79500
O668        O  0.11400197  0.18747043  0.09121458    -0.73000
Al669      Al  0.07305889  0.21522537  0.12576827     1.90100
O670        O  0.12977234  0.22783413  0.11808276    -0.72100
O671        O  0.13223346  0.15466991  0.12203953    -0.71900
O672        O  0.14326983  0.19553833  0.15110606    -0.77600
O673        O  0.09554663  0.13985936  0.13480587    -0.75800
O674        O  0.09573672  0.19129408  0.13406055    -1.11900
O675        O  0.05252400  0.16356117  0.14434579    -0.71100
C676        C  0.03993385  0.17192668  0.12718867     0.99600
C677        C  0.11747538  0.24626565  0.12691574     0.96000
Al678      Al  0.12714834  0.19137104  0.12163574     1.55600
O679        O  0.05656268  0.21824432  0.15559216    -0.75800
C680        C  0.11716447  0.13607347  0.12561831     1.00100
C681        C  0.09818936  0.20247426  0.08165118     0.95000
O682        O  0.08421593  0.21701493  0.09392170    -0.81100
O683        O  0.06619674  0.21367669  0.89756870    -0.80500
C684        C  0.11748410  0.18739219  0.81440368     0.98800
O685        O  0.12802039  0.19014866  0.83406233    -0.69700
O686        O  0.11943035  0.23476698  0.85310976    -0.73200
Al687      Al  0.11490260  0.20092225  0.86385406     1.49000
C688        C  0.10722896  0.25411056  0.85998750     0.94100
O689        O  0.05232869  0.23605108  0.83615356    -0.79500
O690        O  0.04634758  0.16417286  0.85850825    -0.73000
Al691      Al  0.06025306  0.22387014  0.86657293     1.90100
O692        O  0.04557727  0.19782880  0.82131651    -0.72100
O693        O  0.09299117  0.14956108  0.84706185    -0.71900
O694        O  0.09337901  0.18599651  0.81275363    -0.77600
O695        O  0.11474878  0.16676434  0.87543859    -0.75800
O696        O  0.08197398  0.20033779  0.85568318    -1.11900
O697        O  0.10841848  0.21171828  0.89541798    -0.71100
C698        C  0.08787901  0.21224503  0.90727097     0.99600
C699        C  0.04372364  0.22195545  0.82013189     0.96000
Al700      Al  0.07048198  0.17635886  0.83655399     1.55600
O701        O  0.08507219  0.25159503  0.86877344    -0.75800
C702        C  0.10808246  0.14719918  0.86411468     1.00100
C703        C  0.02840521  0.17749362  0.86686231     0.95000
O704        O  0.03031632  0.20168786  0.86731200    -0.81100
C705        C  0.07445268  0.19297468  0.96934121     0.13900
C706        C  0.09211006  0.20823763  0.98148329     0.00900
C707        C  0.10822084  0.22506181  0.96921945     0.15900
C708        C  0.10689826  0.22639342  0.94497800     0.25300
C709        C  0.08922695  0.21111121  0.93278176    -0.41100
C710        C  0.07288403  0.19451162  0.94514286     0.32300
C711        C  0.09361197  0.20664936  0.00699959     0.01000
F712        F  0.12501704  0.24033857  0.98078600    -0.13400
F713        F  0.05593658  0.17925259  0.93371610    -0.13900
C714        C  0.11230659  0.19130006  0.01760448     0.15900
C715        C  0.11369541  0.18968017  0.04181558     0.25300
C716        C  0.09637310  0.20356331  0.05589343    -0.41000
C717        C  0.07748514  0.21883015  0.04498983     0.32200
C718        C  0.07617414  0.22029420  0.02077946     0.14000
F719        F  0.12917106  0.17778145  0.00444108    -0.13400
F720        F  0.06015046  0.23235188  0.05764239    -0.13900
F721        F  0.13215307  0.17462085  0.05135456    -0.16200
F722        F  0.05792077  0.23518485  0.01071807    -0.14700
F723        F  0.05896436  0.17640102  0.98096163    -0.14700
F724        F  0.12232740  0.24310108  0.93345133    -0.16100
C725        C  0.12173085  0.07556882  0.86198523     0.13900
C726        C  0.14208506  0.07295141  0.87783356     0.00900
C727        C  0.15045042  0.09468663  0.89011487     0.15900
C728        C  0.13893615  0.11866414  0.88630816     0.25300
C729        C  0.11883516  0.12144493  0.86998820    -0.41100
C730        C  0.11021280  0.09939203  0.85813419     0.32300
C731        C  0.15513678  0.04769272  0.88031813     0.01000
F732        F  0.16989400  0.09273029  0.90572801    -0.13400
F733        F  0.09091041  0.10079412  0.84233075    -0.13900
C734        C  0.18118808  0.04490585  0.87428819     0.15900
C735        C  0.19225035  0.02048278  0.87250920     0.25300
C736        C  0.17739927  0.99829459  0.87659344    -0.41000
C737        C  0.15182173  0.00126982  0.88417972     0.32200
C738        C  0.14087672  0.02569890  0.88611459     0.14000
F739        F  0.19545717  0.06572893  0.86845756    -0.13400
F740        F  0.13708908  0.98046840  0.88903644    -0.13900
F741        F  0.21692782  0.01858819  0.86500633    -0.16200
F742        F  0.11596125  0.02786594  0.89286585    -0.14700
F743        F  0.11361602  0.05509884  0.84942177    -0.14700
F744        F  0.14801328  0.13921400  0.89820320    -0.16100
C745        C  0.12856960  0.06482563  0.13261745     0.13900
C746        C  0.14368522  0.05894115  0.11306440     0.00900
C747        C  0.14919551  0.07854566  0.09699114     0.15900
C748        C  0.14033571  0.10364046  0.10078213     0.25300
C749        C  0.12544631  0.10946375  0.12049689    -0.41100
C750        C  0.11943526  0.08970124  0.13620940     0.32300
C751        C  0.15478863  0.03272440  0.11060410     0.01000
F752        F  0.16307960  0.07336835  0.07759463    -0.13400
F753        F  0.10582324  0.09473951  0.15580839    -0.13900
C754        C  0.13879521  0.01099183  0.11167343     0.15900
C755        C  0.14937666  0.98644868  0.11397578     0.25300
C756        C  0.17620251  0.98304257  0.11487325    -0.41000
C757        C  0.19221957  0.00453621  0.11184842     0.32200
C758        C  0.18161276  0.02916333  0.10989507     0.14000
F759        F  0.11283084  0.01363839  0.11128318    -0.13400
F760        F  0.21817541  0.00199109  0.11265235    -0.13900
F761        F  0.13334983  0.96601013  0.11589868    -0.16200
F762        F  0.19762934  0.04968392  0.10903059    -0.14700
F763        F  0.12358768  0.04666742  0.14889864    -0.14700
F764        F  0.14607070  0.12218515  0.08508196    -0.16100
C765        C  0.21574321  0.92445610  0.01902954     0.13900
C766        C  0.22149921  0.90248858  0.00587306     0.00900
C767        C  0.22617796  0.87916179  0.01731588     0.15900
C768        C  0.22461539  0.87769537  0.04146763     0.25300
C769        C  0.21902106  0.89964622  0.05453332    -0.41100
C770        C  0.21483443  0.92309181  0.04324940     0.32300
C771        C  0.22213179  0.90370812  0.98023595     0.01000
F772        F  0.23265334  0.85788936  0.00509206    -0.13400
F773        F  0.20905903  0.94443646  0.05566463    -0.13900
C774        C  0.23806161  0.92145234  0.96881527     0.15900
C775        C  0.23815124  0.92288688  0.94459806     0.25300
C776        C  0.22253649  0.90635799  0.93141554    -0.41000
C777        C  0.20706686  0.88822045  0.94285564     0.32200
C778        C  0.20667459  0.88709627  0.96704930     0.14000
F779        F  0.25376410  0.93719158  0.98111550    -0.13400
F780        F  0.19152300  0.87221877  0.93067140    -0.13900
F781        F  0.25381950  0.94016095  0.93404666    -0.16200
F782        F  0.19056808  0.87026615  0.97763636    -0.14700
F783        F  0.21034659  0.94703654  0.00839863    -0.14700
F784        F  0.22926060  0.85499906  0.05217832    -0.16100
C785        C  0.08125955  0.87273795  0.85654771     0.13900
C786        C  0.07749244  0.85513631  0.87465617     0.00900
C787        C  0.09760100  0.85087522  0.89049189     0.15900
C788        C  0.12114984  0.86392930  0.88813837     0.25300
C789        C  0.12507871  0.88147713  0.86977925    -0.41100
C790        C  0.10463827  0.88572312  0.85409737     0.32300
C791        C  0.05249129  0.84132801  0.87651259     0.01000
F792        F  0.09439113  0.83412258  0.90828586    -0.13400
F793        F  0.10743916  0.90173539  0.83568816    -0.13900
C794        C  0.05089246  0.81482603  0.87238494     0.15900
C795        C  0.02683782  0.80265517  0.87064569     0.25300
C796        C  0.00387179  0.81681088  0.87301661    -0.41000
C797        C  0.00570914  0.84311451  0.87843145     0.32200
C798        C  0.02970307  0.85517499  0.88008818     0.14000
F799        F  0.07259398  0.80102242  0.86857949    -0.13400
F800        F  0.98421777  0.85747319  0.88146852    -0.13900
F801        F  0.02610540  0.77739301  0.86511421    -0.16200
F802        F  0.03070022  0.88070358  0.88448700    -0.14700
F803        F  0.06243117  0.87674741  0.84063522    -0.14700
F804        F  0.14012114  0.85914960  0.90371911    -0.16100
C805        C  0.03744136  0.81928068  0.10299652     0.13900
C806        C  0.04609464  0.84206951  0.11348927     0.00900
C807        C  0.02879915  0.85624176  0.12713491     0.15900
C808        C  0.00361545  0.84774023  0.13054372     0.25300
C809        C  0.99510103  0.82440497  0.12084733    -0.41100
C810        C  0.01227447  0.81044910  0.10672680     0.32300
C811        C  0.07343533  0.85042528  0.11172829     0.01000
F812        F  0.03661570  0.87787422  0.13816213    -0.13400
F813        F  0.00509309  0.78781901  0.09709786    -0.13900
C814        C  0.07963935  0.87588151  0.10581507     0.15900
C815        C  0.10488806  0.88492699  0.10804635     0.25300
C816        C  0.12459751  0.86848697  0.11556443    -0.41000
C817        C  0.11871772  0.84254085  0.11978211     0.32200
C818        C  0.09337884  0.83371081  0.11820828     0.14000
F819        F  0.06107106  0.89219706  0.09839082    -0.13400
F820        F  0.13719278  0.82598864  0.12698052    -0.13900
F821        F  0.10998220  0.90985059  0.10312274    -0.16200
F822        F  0.08816017  0.80919746  0.12453404    -0.14700
F823        F  0.05345649  0.80537616  0.08930806    -0.14700
F824        F  0.98776541  0.86230602  0.14382405    -0.16100
C825        C  0.92356207  0.75821795  0.02208179     0.13900
C826        C  0.91486147  0.77816043  0.00770385     0.00900
C827        C  0.90505017  0.80052655  0.01801223     0.15900
C828        C  0.90331743  0.80266630  0.04218882     0.25300
C829        C  0.91160020  0.78252911  0.05665855    -0.41100
C830        C  0.92208520  0.76039864  0.04627818     0.32300
C831        C  0.91549427  0.77550533  0.98199374     0.01000
F832        F  0.89740416  0.82051473  0.00461488    -0.13400
F833        F  0.93032011  0.74047579  0.05947029    -0.13900
C834        C  0.89285866  0.77840577  0.96895670     0.15900
C835        C  0.89334349  0.77657004  0.94471808     0.25300
C836        C  0.91655774  0.77158267  0.93284957    -0.41000
C837        C  0.93917532  0.76815493  0.94608592     0.32200
C838        C  0.93862061  0.77019872  0.97033513     0.14000
F839        F  0.87008963  0.78283980  0.97976719    -0.13400
F840        F  0.96204387  0.76312810  0.93566523    -0.13900
F841        F  0.87099357  0.77996972  0.93296374    -0.16200
F842        F  0.96089370  0.76765704  0.98240299    -0.14700
F843        F  0.93282525  0.73623826  0.01268012    -0.14700
F844        F  0.89387810  0.82468034  0.05138569    -0.16100
C845        C  0.85418710  0.89098989  0.88966417     0.13900
C846        C  0.86466126  0.91325496  0.87963959     0.00900
C847        C  0.88748873  0.91113559  0.86664444     0.15900
C848        C  0.89923311  0.88732432  0.86324643     0.25300
C849        C  0.88824164  0.86479769  0.87241831    -0.41100
C850        C  0.86576722  0.86703044  0.88606160     0.32300
C851        C  0.85135099  0.93851052  0.88143275     0.01000
F852        F  0.89789502  0.93206062  0.85624129    -0.13400
F853        F  0.85432014  0.84595192  0.89524105    -0.13900
C854        C  0.86500574  0.96049844  0.88836349     0.15900
C855        C  0.85412163  0.98487544  0.88596749     0.25300
C856        C  0.82907722  0.98780058  0.87708931    -0.41000
C857        C  0.81455147  0.96568369  0.87218209     0.32200
C858        C  0.82567495  0.94130482  0.87406555     0.14000
F859        F  0.88929401  0.95842081  0.89677630    -0.13400
F860        F  0.79023019  0.96766773  0.86383278    -0.13900
F861        F  0.86839540  0.00570911  0.89174547    -0.16200
F862        F  0.81188936  0.92060857  0.86708018    -0.14700
F863        F  0.83252999  0.89237373  0.90277320    -0.14700
F864        F  0.92116226  0.88637844  0.85048137    -0.16100
C865        C  0.95769643  0.16374302  0.87681206     0.13900
C866        C  0.95813458  0.13754761  0.88257307     0.00900
C867        C  0.98199491  0.12549032  0.88597082     0.15900
C868        C  0.00494214  0.13881919  0.88192896     0.25300
C869        C  0.00448081  0.16461235  0.87471156    -0.41100
C870        C  0.98062522  0.17719149  0.87308156     0.32300
C871        C  0.93389373  0.12240095  0.88236726     0.01000
F872        F  0.98304890  0.10055017  0.89258669    -0.13400
F873        F  0.97931694  0.20204633  0.86625973    -0.13900
C874        C  0.93126422  0.10160983  0.86703291     0.15900
C875        C  0.90742945  0.08965476  0.86395287     0.25300
C876        C  0.88550272  0.09839737  0.87598688    -0.41000
C877        C  0.88857231  0.11824864  0.89242091     0.32200
C878        C  0.91252169  0.13003827  0.89558326     0.14000
F879        F  0.95145321  0.09387379  0.85383371    -0.13400
F880        F  0.86819056  0.12724478  0.90468118    -0.13900
F881        F  0.90572294  0.07024429  0.84834629    -0.16200
F882        F  0.91465230  0.14951406  0.91108198    -0.14700
F883        F  0.93500550  0.17593997  0.87320043    -0.14700
F884        F  0.02761890  0.12630027  0.88462534    -0.16100
C885        C  0.86751113  0.97797911  0.10601279     0.13900
C886        C  0.85273195  0.95557827  0.10882647     0.00900
C887        C  0.82622414  0.95799294  0.11354660     0.15900
C888        C  0.81516586  0.98220142  0.11669350     0.25300
C889        C  0.83052690  0.00429332  0.11588391    -0.41100
C890        C  0.85662740  0.00206300  0.11000361     0.32300
C891        C  0.86539868  0.92998511  0.10952169     0.01000
F892        F  0.81136215  0.93691398  0.11683306    -0.13400
F893        F  0.87173211  0.02323225  0.10867405    -0.13900
C894        C  0.88659658  0.92592052  0.12427970     0.15900
C895        C  0.89694295  0.90143163  0.12716379     0.25300
C896        C  0.88583037  0.88019492  0.11595096    -0.41000
C897        C  0.86534038  0.88438466  0.10038090     0.32200
C898        C  0.85542714  0.90906445  0.09702010     0.14000
F899        F  0.89633478  0.94539744  0.13718956    -0.13400
F900        F  0.85452045  0.86452027  0.08870876    -0.13900
F901        F  0.91675911  0.89836782  0.14224164    -0.16200
F902        F  0.83573811  0.91242264  0.08185600    -0.14700
F903        F  0.89275543  0.97648777  0.10015812    -0.14700
F904        F  0.78990565  0.98390499  0.12245389    -0.16100
C905        C  0.97404063  0.16068644  0.09994133     0.13900
C906        C  0.96445080  0.14059338  0.11369260     0.00900
C907        C  0.98042954  0.12966590  0.13063087     0.15900
C908        C  0.00519917  0.13918459  0.13439446     0.25300
C909        C  0.01462810  0.16009398  0.12133974    -0.41100
C910        C  0.99889182  0.17030934  0.10363837     0.32300
C911        C  0.93718558  0.13232886  0.11200677     0.01000
F912        F  0.97154305  0.11051059  0.14443502    -0.13400
F913        F  0.00717450  0.19006301  0.09024055    -0.13900
C914        C  0.93086502  0.10651641  0.10796533     0.15900
C915        C  0.90540299  0.09803674  0.11016690     0.25300
C916        C  0.88575213  0.11528312  0.11628471    -0.41000
C917        C  0.89196630  0.14142406  0.11900309     0.32200
C918        C  0.91741885  0.14979628  0.11697279     0.14000
F919        F  0.94951938  0.08938818  0.10247594    -0.13400
F920        F  0.87373515  0.15871228  0.12524322    -0.13900
F921        F  0.90007332  0.07287259  0.10673807    -0.16200
F922        F  0.92298640  0.17473510  0.12141783    -0.14700
F923        F  0.95914646  0.17127070  0.08314130    -0.14700
F924        F  0.01956756  0.12825661  0.15138806    -0.16100
C925        C  0.81062832  0.08411938  0.02101589     0.13900
C926        C  0.78725286  0.07934169  0.00966135     0.00900
C927        C  0.76464991  0.07653844  0.02275456     0.15900
C928        C  0.76531624  0.07917856  0.04692219     0.25300
C929        C  0.78862341  0.08477385  0.05825802    -0.41100
C930        C  0.81132858  0.08686915  0.04510624     0.32300
C931        C  0.78645103  0.07848527  0.98407161     0.01000
F932        F  0.74184263  0.07204225  0.01204564    -0.13400
F933        F  0.83431526  0.09107767  0.05561859    -0.13900
C934        C  0.78045523  0.05570439  0.97239621     0.15900
C935        C  0.78072732  0.05486653  0.94812084     0.25300
C936        C  0.78691400  0.07695698  0.93506177    -0.41000
C937        C  0.79249772  0.09989241  0.94702465     0.32200
C938        C  0.79229887  0.10055913  0.97125378     0.14000
F939        F  0.77497635  0.03408447  0.98454422    -0.13400
F940        F  0.79842658  0.12174816  0.93541326    -0.13900
F941        F  0.77522199  0.03229113  0.93752961    -0.16200
F942        F  0.79777509  0.12287847  0.98230562    -0.14700
F943        F  0.83281895  0.08599678  0.00869984    -0.14700
F944        F  0.74306001  0.07715892  0.05912147    -0.16100
C945        C  0.22666078  0.95741634  0.23557495     0.13900
C946        C  0.23855252  0.98151232  0.23329742     0.00900
C947        C  0.24730489  0.98925017  0.21126733     0.15900
C948        C  0.24287748  0.97397540  0.19169934     0.25300
C949        C  0.22971488  0.95048641  0.19376167    -0.41100
C950        C  0.22235885  0.94202983  0.21603146     0.32300
C951        C  0.23897661  0.99971946  0.25319451     0.01000
F952        F  0.25925303  0.01218999  0.20854484    -0.13400
F953        F  0.21023329  0.91918615  0.21883459    -0.13900
C954        C  0.24949792  0.99282442  0.27482688     0.15900
C955        C  0.24666980  0.00896193  0.29418469     0.25300
C956        C  0.23332758  0.03236933  0.29218093    -0.41000
C957        C  0.22453940  0.03994813  0.27005597     0.32200
C958        C  0.22698554  0.02369507  0.25095753     0.14000
F959        F  0.26185372  0.97010456  0.27736261    -0.13400
F960        F  0.21239367  0.06271861  0.26699126    -0.13900
F961        F  0.25567076  0.00093501  0.31507150    -0.16200
F962        F  0.21605050  0.03078189  0.23054016    -0.14700
F963        F  0.21768278  0.94944620  0.25650548    -0.14700
F964        F  0.24993878  0.98307871  0.17054792    -0.16100
C965        C  0.16613317  0.16499851  0.27125628     0.13900
C966        C  0.18676533  0.16602220  0.25548766     0.00900
C967        C  0.21067036  0.15564735  0.26195992     0.15900
C968        C  0.21337774  0.14299248  0.28328006     0.25300
C969        C  0.19216180  0.14046001  0.29818629    -0.41100
C970        C  0.16875639  0.15205410  0.29233082     0.32300
C971        C  0.18142729  0.17290171  0.23103345     0.01000
F972        F  0.23083064  0.15636019  0.24699022    -0.13400
F973        F  0.14803190  0.14960810  0.30651579    -0.13900
C974        C  0.17106245  0.19695123  0.22519013     0.15900
C975        C  0.15943287  0.20066391  0.20348318     0.25300
C976        C  0.15791606  0.18027918  0.18763661    -0.41000
C977        C  0.17007808  0.15702835  0.19276316     0.32200
C978        C  0.18194621  0.15340958  0.21421359     0.14000
F979        F  0.17061429  0.21614521  0.24108512    -0.13400
F980        F  0.16873644  0.13715756  0.17760195    -0.13900
F981        F  0.14759378  0.22325490  0.19882066    -0.16200
F982        F  0.19158045  0.12994535  0.21943540    -0.14700
F983        F  0.14274512  0.17450874  0.26534007    -0.14700
F984        F  0.23599348  0.13136260  0.28847723    -0.16100
C985        C  0.19903953  0.09558769  0.46958545     0.13900
C986        C  0.22194453  0.08834719  0.48065425     0.00900
C987        C  0.24317653  0.08105977  0.46715057     0.15900
C988        C  0.24142652  0.08051092  0.44291048     0.25300
C989        C  0.21828682  0.08714609  0.43169818    -0.41100
C990        C  0.19718968  0.09502050  0.44533905     0.32300
C991        C  0.22334320  0.08728372  0.50630768     0.01000
F992        F  0.26572881  0.07470479  0.47750659    -0.13400
F993        F  0.17453195  0.10161480  0.43529096    -0.13900
C994        C  0.22587282  0.06358603  0.51753659     0.15900
C995        C  0.22633992  0.06217528  0.54177765     0.25300
C996        C  0.22439843  0.08458140  0.55538819    -0.41000
C997        C  0.22230315  0.10843457  0.54393454     0.32200
C998        C  0.22168560  0.10969912  0.51964679     0.14000
F999        F  0.22717763  0.04164493  0.50494403    -0.13400
F1000       F  0.22075615  0.13062798  0.55613284    -0.13900
F1001       F  0.22811922  0.03871026  0.55180771    -0.16200
F1002       F  0.21961566  0.13286949  0.50910675    -0.14700
F1003       F  0.17821567  0.10254609  0.48232786    -0.14700
F1004       F  0.26260493  0.07405695  0.43043548    -0.16100
C1005       C  0.25560132  0.03025586  0.72860181     0.13900
C1006       C  0.24698569  0.00543870  0.73402691     0.00900
C1007       C  0.23528031  0.99047671  0.71675020     0.15900
C1008       C  0.23077937  0.00072209  0.69477587     0.25300
C1009       C  0.23828962  0.02590688  0.68964238    -0.41100
C1010       C  0.25150572  0.04036914  0.70637817     0.32300
C1011       C  0.24626952  0.99632756  0.75825764     0.01000
F1012       F  0.22629887  0.96667659  0.72176715    -0.13400
F1013       F  0.25838589  0.06496135  0.70184747    -0.13900
C1014       C  0.22877759  0.00753019  0.77378083     0.15900
C1015       C  0.22330036  0.99565779  0.79490807     0.25300
C1016       C  0.23541125  0.97251968  0.80091474    -0.41000
C1017       C  0.25435187  0.96233085  0.78618900     0.32200
C1018       C  0.25957570  0.97407194  0.76483614     0.14000
F1019       F  0.21545795  0.02884777  0.76765221    -0.13400
F1020       F  0.26615619  0.93992158  0.79155057    -0.13900
F1021       F  0.20528555  0.00616621  0.80908223    -0.16200
F1022       F  0.27648319  0.96296661  0.74997857    -0.14700
F1023       F  0.26664030  0.04509845  0.74518566    -0.14700
F1024       F  0.21784974  0.98653477  0.67883370    -0.16100
C1025       C  0.17641071  0.16458514  0.71248249     0.13900
C1026       C  0.16959360  0.15219108  0.73320399     0.00900
C1027       C  0.16989695  0.12536050  0.73415955     0.15900
C1028       C  0.17609723  0.11099643  0.71451450     0.25300
C1029       C  0.18214690  0.12324694  0.69333143    -0.41100
C1030       C  0.18276077  0.15028066  0.69272865     0.32300
C1031       C  0.15923015  0.16668106  0.75314131     0.01000
F1032       F  0.16279391  0.11298082  0.75389817    -0.13400
F1033       F  0.18901227  0.16300328  0.67295169    -0.13900
C1034       C  0.13504749  0.17832649  0.75123447     0.15900
C1035       C  0.12210238  0.18667454  0.77107175     0.25300
C1036       C  0.13328236  0.18377587  0.79322119    -0.41000
C1037       C  0.15857874  0.17426396  0.79479910     0.32200
C1038       C  0.17132739  0.16555374  0.77490355     0.14000
F1039       F  0.12304775  0.17971762  0.73033775    -0.13400
F1040       F  0.17025755  0.17149232  0.81572283    -0.13900
F1041       F  0.09803505  0.19631698  0.76862952    -0.16200
F1042       F  0.19491781  0.15469830  0.77701746    -0.14700
F1043       F  0.17643126  0.19055109  0.71129611    -0.14700
F1044       F  0.17520936  0.08506991  0.71617816    -0.16100
C1045       C  0.82791548  0.79633287  0.22000434     0.13900
C1046       C  0.82602678  0.82029495  0.23093423     0.00900
C1047       C  0.83512306  0.84222281  0.21950414     0.15900
C1048       C  0.84772954  0.84009047  0.19823845     0.25300
C1049       C  0.85115006  0.81596978  0.18784155    -0.41100
C1050       C  0.84016579  0.79420397  0.19836022     0.32300
C1051       C  0.81913476  0.82262508  0.25567527     0.01000
F1052       F  0.83351611  0.86553031  0.22987747    -0.13400
F1053       F  0.84317592  0.77068903  0.18868540    -0.13900
C1054       C  0.83894583  0.82100781  0.27214882     0.15900
C1055       C  0.83556191  0.83123397  0.29431763     0.25300
C1056       C  0.81212818  0.84264717  0.30045979    -0.41000
C1057       C  0.79144539  0.84202033  0.28479533     0.32200
C1058       C  0.79502479  0.83226118  0.26234225     0.14000
F1059       F  0.86241374  0.81189456  0.26595585    -0.13400
F1060       F  0.76872210  0.85319791  0.29042200    -0.13900
F1061       F  0.85575604  0.83172476  0.30924964    -0.16200
F1062       F  0.77573763  0.83412995  0.24657108    -0.14700
F1063       F  0.81925803  0.77493498  0.23088279    -0.14700
F1064       F  0.85766202  0.86152226  0.18829799    -0.16100
C1065       C  0.78406940  0.95914042  0.25191615     0.13900
C1066       C  0.77074004  0.98235429  0.25407699     0.00900
C1067       C  0.75844484  0.98816953  0.27511243     0.15900
C1068       C  0.76085015  0.97175214  0.29426386     0.25300
C1069       C  0.77598705  0.94939383  0.29272163    -0.41100
C1070       C  0.78669342  0.94279362  0.27101369     0.32300
C1071       C  0.77258188  0.00167105  0.23533405     0.01000
F1072       F  0.74511892  0.01036864  0.27739056    -0.13400
F1073       F  0.80073298  0.92105335  0.26847253    -0.13900
C1074       C  0.75863471  0.99888839  0.21467266     0.15900
C1075       C  0.76302894  0.01547879  0.19593235     0.25300
C1076       C  0.78183370  0.03500652  0.19743096    -0.41000
C1077       C  0.79497652  0.03827131  0.21866940     0.32200
C1078       C  0.79033742  0.02177946  0.23736824     0.14000
F1079       F  0.74129479  0.97959802  0.21242394    -0.13400
F1080       F  0.81303538  0.05685023  0.22121372    -0.13900
F1081       F  0.74964638  0.01156734  0.17601397    -0.16200
F1082       F  0.80417807  0.02463086  0.25718520    -0.14700
F1083       F  0.79597985  0.95310066  0.23166204    -0.14700
F1084       F  0.74989831  0.97875166  0.31469566    -0.16100
C1085       C  0.77693020  0.88153435  0.52005620     0.13900
C1086       C  0.78138946  0.90415085  0.50747252     0.00900
C1087       C  0.78466108  0.92732168  0.51941292     0.15900
C1088       C  0.78417261  0.92780926  0.54363692     0.25300
C1089       C  0.78048771  0.90500934  0.55640612    -0.41100
C1090       C  0.77651530  0.88191450  0.54431209     0.32300
C1091       C  0.78342003  0.90337873  0.48191473     0.01000
F1092       F  0.78928289  0.94937527  0.50761278    -0.13400
F1093       F  0.77213800  0.85968130  0.55589313    -0.13900
C1094       C  0.76652560  0.91764473  0.46804849     0.15900
C1095       C  0.76813255  0.91635714  0.44386360     0.25300
C1096       C  0.78673476  0.90065854  0.43306072    -0.41000
C1097       C  0.80409188  0.88692710  0.44715990     0.32200
C1098       C  0.80239921  0.88830754  0.47131645     0.14000
F1099       F  0.74805520  0.93241539  0.47795325    -0.13400
F1100       F  0.82284241  0.87216400  0.43769914    -0.13900
F1101       F  0.75116566  0.93026338  0.43115226    -0.16200
F1102       F  0.81954921  0.87511032  0.48444530    -0.14700
F1103       F  0.77293654  0.85904808  0.50877972    -0.14700
F1104       F  0.78829706  0.95052095  0.55451441    -0.16100
C1105       C  0.83463028  0.81591744  0.77310120     0.13900
C1106       C  0.84840250  0.81940089  0.75232705     0.00900
C1107       C  0.87459053  0.81309965  0.75162758     0.15900
C1108       C  0.88727805  0.80520435  0.77166041     0.25300
C1109       C  0.87414395  0.80395851  0.79309623    -0.41100
C1110       C  0.84738128  0.80821856  0.79336984     0.32300
C1111       C  0.83671643  0.83247305  0.73213371     0.01000
F1112       F  0.88844144  0.81636304  0.73184474    -0.13400
F1113       F  0.83371683  0.80618024  0.81337683    -0.13900
C1114       C  0.82795025  0.85777995  0.73443543     0.15900
C1115       C  0.82148713  0.87213204  0.71481711     0.25300
C1116       C  0.82374712  0.86142374  0.69244304    -0.41000
C1117       C  0.83131667  0.83561260  0.69029981     0.32200
C1118       C  0.83769468  0.82129315  0.70997487     0.14000
F1119       F  0.82718673  0.86918121  0.75561547    -0.13400
F1120       F  0.83392715  0.82452767  0.66910348    -0.13900
F1121       F  0.81364935  0.89671859  0.71775966    -0.16200
F1122       F  0.84584579  0.79676870  0.70733543    -0.14700
F1123       F  0.80903312  0.82089346  0.77391142    -0.14700
F1124       F  0.91278770  0.79992663  0.77011980    -0.16100
C1125       C  0.78182346  0.99945218  0.71732670     0.13900
C1126       C  0.76261959  0.98991416  0.73211860     0.00900
C1127       C  0.74766336  0.96893773  0.72488956     0.15900
C1128       C  0.75275714  0.95685367  0.70361786     0.25300
C1129       C  0.77322362  0.96533001  0.68960353    -0.41100
C1130       C  0.78714319  0.98724623  0.69631479     0.32300
C1131       C  0.76127909  0.99957284  0.75623530     0.01000
F1132       F  0.72889696  0.95954466  0.73889548    -0.13400
F1133       F  0.80648566  0.99643822  0.68280961    -0.13900
C1134       C  0.75474924  0.02521268  0.76084776     0.15900
C1135       C  0.75912356  0.03569407  0.78290905     0.25300
C1136       C  0.77060338  0.02078463  0.80034027    -0.41000
C1137       C  0.77575963  0.99482814  0.79609908     0.32200
C1138       C  0.77086024  0.98421275  0.77428416     0.14000
F1139       F  0.74558330  0.04041572  0.74362105    -0.13400
F1140       F  0.78682782  0.98012143  0.81276449    -0.13900
F1141       F  0.75423487  0.06089657  0.78665141    -0.16200
F1142       F  0.77753331  0.95948505  0.77019127    -0.14700
F1143       F  0.79665236  0.01957146  0.72399822    -0.14700
F1144       F  0.73890057  0.93586581  0.69752382    -0.16100
C1145       C  0.99493493  0.74905610  0.21438580     0.13900
C1146       C  0.98968939  0.76002353  0.23609060     0.00900
C1147       C  0.96736357  0.77485748  0.23887558     0.15900
C1148       C  0.95165868  0.78033411  0.21976824     0.25300
C1149       C  0.95808781  0.77109790  0.19748829    -0.41100
C1150       C  0.97935872  0.75449403  0.19526454     0.32300
C1151       C  0.00925387  0.75908427  0.25474693     0.01000
F1152       F  0.96172294  0.78553006  0.25976340    -0.13400
F1153       F  0.98619892  0.74471373  0.17432047    -0.13900
C1154       C  0.03357135  0.77001216  0.25084685     0.15900
C1155       C  0.05112355  0.77261157  0.26901754     0.25300
C1156       C  0.04461288  0.76457175  0.29161952    -0.41000
C1157       C  0.02092870  0.75185955  0.29509717     0.32200
C1158       C  0.00335465  0.74932229  0.27682142     0.14000
F1159       F  0.03970298  0.77978566  0.22970203    -0.13400
F1160       F  0.01397296  0.74330287  0.31646158    -0.13900
F1161       F  0.07400973  0.78418451  0.26462675    -0.16200
F1162       F  0.98020646  0.73813662  0.28087094    -0.14700
F1163       F  0.01598904  0.73403972  0.21147009    -0.14700
F1164       F  0.93081768  0.79557880  0.22297477    -0.16100
C1165       C  0.21024566  0.83616692  0.22624558     0.13900
C1166       C  0.18754557  0.82293102  0.23195487     0.00900
C1167       C  0.16876080  0.81901928  0.21477369     0.15900
C1168       C  0.17169272  0.82991851  0.19278232     0.25300
C1169       C  0.19364998  0.84438716  0.18754714    -0.41100
C1170       C  0.21337392  0.84666862  0.20403868     0.32300
C1171       C  0.18085471  0.81768912  0.25644963     0.01000
F1172       F  0.14650849  0.80665941  0.21997307    -0.13400
F1173       F  0.23459471  0.86090789  0.19927275    -0.13900
C1174       C  0.17515202  0.83846079  0.27103979     0.15900
C1175       C  0.16266020  0.83441522  0.29215620     0.25300
C1176       C  0.15594757  0.80952642  0.29917662    -0.41000
C1177       C  0.16361722  0.78853019  0.28560256     0.32200
C1178       C  0.17582505  0.79261922  0.26417929     0.14000
F1179       F  0.17956301  0.86285761  0.26386523    -0.13400
F1180       F  0.15723609  0.76433833  0.29205396    -0.13900
F1181       F  0.15568126  0.85496541  0.30516875    -0.16200
F1182       F  0.18132247  0.77230311  0.25034912    -0.14700
F1183       F  0.22853449  0.84032177  0.24262441    -0.14700
F1184       F  0.15241515  0.82768301  0.17702760    -0.16100
C1185       C  0.97452217  0.84813231  0.35102043     0.13900
C1186       C  0.95926733  0.83910727  0.36937717     0.00900
C1187       C  0.96949633  0.82055317  0.38447557     0.15900
C1188       C  0.99462065  0.81126558  0.38128487     0.25300
C1189       C  0.01001633  0.82030284  0.36280479    -0.41100
C1190       C  0.99947776  0.83891971  0.34772435     0.32300
C1191       C  0.93239217  0.84851914  0.37185146     0.01000
F1192       F  0.95515551  0.81147343  0.40237713    -0.13400
F1193       F  0.01301293  0.84800444  0.32930841    -0.13900
C1194       C  0.91157103  0.83166150  0.36904506     0.15900
C1195       C  0.88632621  0.84099717  0.36816946     0.25300
C1196       C  0.88133176  0.86751336  0.36998393    -0.41000
C1197       C  0.90220056  0.88422244  0.37382220     0.32200
C1198       C  0.92742225  0.87479828  0.37477650     0.14000
F1199       F  0.91578825  0.80626549  0.36572228    -0.13400
F1200       F  0.89830447  0.90978892  0.37622410    -0.13900
F1201       F  0.86696317  0.82412734  0.36410500    -0.16200
F1202       F  0.94715449  0.89145171  0.37803912    -0.14700
F1203       F  0.96488004  0.86539196  0.33568684    -0.14700
F1204       F  0.00366305  0.79323085  0.39615675    -0.16100
C1205       C  0.13801561  0.97448923  0.37228000     0.13900
C1206       C  0.15278719  0.95193411  0.37227964     0.00900
C1207       C  0.17981653  0.95399879  0.37181199     0.15900
C1208       C  0.19174490  0.97807142  0.37033874     0.25300
C1209       C  0.17684363  0.00042881  0.36890742    -0.41100
C1210       C  0.14992401  0.99846337  0.37042666     0.32300
C1211       C  0.14011989  0.92634263  0.37093293     0.01000
F1212       F  0.19463860  0.93262302  0.37120295    -0.13400
F1213       F  0.13510639  0.01984527  0.36954586    -0.13900
C1214       C  0.12303129  0.92074230  0.35266097     0.15900
C1215       C  0.11287472  0.89605528  0.35002762     0.25300
C1216       C  0.11989279  0.87630116  0.36539624    -0.41000
C1217       C  0.13630654  0.88207885  0.38410007     0.32200
C1218       C  0.14612569  0.90690764  0.38695750     0.14000
F1219       F  0.11725220  0.93883234  0.33654930    -0.13400
F1220       F  0.14299236  0.86361146  0.39954876    -0.13900
F1221       F  0.09752355  0.89110162  0.33149666    -0.16200
F1222       F  0.16172905  0.91193574  0.40528413    -0.14700
F1223       F  0.11197342  0.97327071  0.37349827    -0.14700
F1224       F  0.21773254  0.97937998  0.36847292    -0.16100
C1225       C  0.92535812  0.88209045  0.60990544     0.13900
C1226       C  0.92825592  0.85529585  0.60856165     0.00900
C1227       C  0.90605393  0.83993186  0.60703650     0.15900
C1228       C  0.88155771  0.85104763  0.60829726     0.25300
C1229       C  0.87886385  0.87759944  0.61172462    -0.41100
C1230       C  0.90093951  0.89307668  0.61189063     0.32300
C1231       C  0.95421391  0.84358898  0.61135617     0.01000
F1232       F  0.90800156  0.81402751  0.60612361    -0.13400
F1233       F  0.89887877  0.91881593  0.61467986    -0.13900
C1234       C  0.96953443  0.85073357  0.63041212     0.15900
C1235       C  0.99414139  0.84061982  0.63324783     0.25300
C1236       C  0.00387126  0.82247925  0.61750754    -0.41000
C1237       C  0.98830500  0.81442086  0.59892944     0.32200
C1238       C  0.96377031  0.82515117  0.59568332     0.14000
F1239       F  0.96035304  0.86705435  0.64679019    -0.13400
F1240       F  0.99705311  0.79661879  0.58368656    -0.13900
F1241       F  0.00809857  0.84782206  0.65207544    -0.16200
F1242       F  0.94957099  0.81784356  0.57706009    -0.14700
F1243       F  0.94632354  0.89760097  0.61024464    -0.14700
F1244       F  0.86055158  0.83558085  0.60822852    -0.16100
C1245       C  0.15538656  0.89710358  0.60069265     0.13900
C1246       C  0.14465157  0.91940171  0.61035159     0.00900
C1247       C  0.12105707  0.91747735  0.62223721     0.15900
C1248       C  0.10877071  0.89377470  0.62485795     0.25300
C1249       C  0.11992426  0.87125801  0.61592795    -0.41100
C1250       C  0.14322588  0.87330535  0.60347064     0.32300
C1251       C  0.15831959  0.94450941  0.60899468     0.01000
F1252       F  0.11035225  0.93845923  0.63224658    -0.13400
F1253       F  0.15495263  0.85214194  0.59480569    -0.13900
C1254       C  0.14539696  0.96647239  0.60102529     0.15900
C1255       C  0.15673741  0.99070155  0.60296733     0.25300
C1256       C  0.18149609  0.99350073  0.61250173    -0.41000
C1257       C  0.19526970  0.97134509  0.61874893     0.32200
C1258       C  0.18368725  0.94711744  0.61726370     0.14000
F1259       F  0.12140910  0.96453691  0.59190903    -0.13400
F1260       F  0.21920561  0.97324161  0.62798699    -0.13900
F1261       F  0.14316781  0.01156919  0.59608808    -0.16200
F1262       F  0.19667954  0.92643993  0.62539875    -0.14700
F1263       F  0.17785520  0.89829610  0.58873196    -0.14700
F1264       F  0.08610967  0.89287931  0.63654511    -0.16100
C1265       C  0.08791249  0.75713601  0.46605696     0.13900
C1266       C  0.09546377  0.77822405  0.47957416     0.00900
C1267       C  0.10358315  0.80080519  0.46847729     0.15900
C1268       C  0.10418679  0.80229729  0.44426921     0.25300
C1269       C  0.09636325  0.78130251  0.43067201    -0.41100
C1270       C  0.08820026  0.75868138  0.44183786     0.32300
C1271       C  0.09453946  0.77690265  0.50523505     0.01000
F1272       F  0.11041311  0.82166893  0.48112358    -0.13400
F1273       F  0.08110378  0.73777182  0.42936179    -0.13900
C1274       C  0.11660691  0.78214577  0.51842185     0.15900
C1275       C  0.11547597  0.78221360  0.54265370     0.25300
C1276       C  0.09220921  0.77668832  0.55428023    -0.41000
C1277       C  0.07021438  0.77094967  0.54091451     0.32200
C1278       C  0.07139728  0.77113734  0.51666979     0.14000
F1279       F  0.13938184  0.78712851  0.50778813    -0.13400
F1280       F  0.04739020  0.76534680  0.55118513    -0.13900
F1281       F  0.13718628  0.78808654  0.55460804    -0.16200
F1282       F  0.04968692  0.76634900  0.50432236    -0.14700
F1283       F  0.08071440  0.73483646  0.47632674    -0.14700
F1284       F  0.11188789  0.82452798  0.43418116    -0.16100
C1285       C  0.03018255  0.73394967  0.72325702     0.13900
C1286       C  0.00862191  0.74787230  0.73091063     0.00900
C1287       C  0.99804982  0.76666766  0.71637984     0.15900
C1288       C  0.00973652  0.77271374  0.69526140     0.25300
C1289       C  0.03211829  0.75987086  0.68805838    -0.41100
C1290       C  0.04170676  0.73970464  0.70175995     0.32300
C1291       C  0.99923456  0.74621239  0.75517120     0.01000
F1292       F  0.97736646  0.78047041  0.72345635    -0.13400
F1293       F  0.06324541  0.72694321  0.69519554    -0.13900
C1294       C  0.01225858  0.76004204  0.77244708     0.15900
C1295       C  0.00052911  0.76475380  0.79387737     0.25300
C1296       C  0.97579016  0.75522373  0.79863200    -0.41000
C1297       C  0.96348661  0.73976984  0.78201178     0.32200
C1298       C  0.97504375  0.73551834  0.76028374     0.14000
F1299       F  0.03547890  0.77081192  0.76781887    -0.13400
F1300       F  0.93940127  0.73075456  0.78601741    -0.13900
F1301       F  0.01279110  0.77979224  0.80961031    -0.16200
F1302       F  0.96199512  0.72235660  0.74372795    -0.14700
F1303       F  0.04069684  0.71566654  0.73704381    -0.14700
F1304       F  0.99971329  0.79191584  0.68218649    -0.16100
C1305       C  0.13898223  0.81437725  0.73432702     0.13900
C1306       C  0.16180387  0.82848401  0.73230461     0.00900
C1307       C  0.17313444  0.83191153  0.71043177     0.15900
C1308       C  0.16071645  0.82300379  0.69050121     0.25300
C1309       C  0.13656454  0.81093532  0.69230033    -0.41100
C1310       C  0.12642136  0.80562110  0.71446726     0.32300
C1311       C  0.17104235  0.84328651  0.75231913     0.01000
F1312       F  0.19536893  0.84535539  0.70831864    -0.13400
F1313       F  0.10367511  0.79309278  0.71688559    -0.13900
C1314       C  0.18331224  0.83128367  0.77101413     0.15900
C1315       C  0.18954622  0.84533990  0.79090716     0.25300
C1316       C  0.18325445  0.87158520  0.79240331    -0.41000
C1317       C  0.17143299  0.88356243  0.77324287     0.32200
C1318       C  0.16542510  0.86949394  0.75342611     0.14000
F1319       F  0.18885505  0.80590375  0.77009945    -0.13400
F1320       F  0.16454166  0.90863001  0.77396398    -0.13900
F1321       F  0.20148266  0.83317367  0.80872463    -0.16200
F1322       F  0.15296587  0.88120250  0.73563079    -0.14700
F1323       F  0.12782040  0.81089257  0.75541331    -0.14700
F1324       F  0.17129783  0.82811968  0.66944678    -0.16100
C1325       C  0.85511648  0.16355398  0.21458979     0.13900
C1326       C  0.83463818  0.17066138  0.22908318     0.00900
C1327       C  0.80921562  0.16716508  0.22150874     0.15900
C1328       C  0.80430552  0.15462947  0.20051450     0.25300
C1329       C  0.82484332  0.14518477  0.18722795    -0.41100
C1330       C  0.85023939  0.15074800  0.19383303     0.32300
C1331       C  0.83996977  0.17603589  0.25366975     0.01000
F1332       F  0.78926568  0.17411822  0.23533444    -0.13400
F1333       F  0.87035446  0.14249269  0.18077880    -0.13900
C1334       C  0.85412967  0.19773396  0.26034280     0.15900
C1335       C  0.86343206  0.19973946  0.28304368     0.25300
C1336       C  0.85893089  0.17989387  0.29898150    -0.41000
C1337       C  0.84405808  0.15872506  0.29257073     0.32200
C1338       C  0.83441011  0.15689893  0.27009128     0.14000
F1339       F  0.86023115  0.21606487  0.24454732    -0.13400
F1340       F  0.84042828  0.13903441  0.30763580    -0.13900
F1341       F  0.87869898  0.21984678  0.28890479    -0.16200
F1342       F  0.82162489  0.13532961  0.26371979    -0.14700
F1343       F  0.87984025  0.16676674  0.22160711    -0.14700
F1344       F  0.77963566  0.14959699  0.19432579    -0.16100
C1345       C  0.97155857  0.21166584  0.25195605     0.13900
C1346       C  0.99529537  0.22427680  0.25443581     0.00900
C1347       C  0.00221474  0.23402144  0.27630428     0.15900
C1348       C  0.98653297  0.22972532  0.29567575     0.25300
C1349       C  0.96352852  0.21562611  0.29349317    -0.41100
C1350       C  0.95577951  0.20748671  0.27124534     0.32300
C1351       C  0.01393107  0.22448829  0.23490282     0.01000
F1352       F  0.02475437  0.24679698  0.27907886    -0.13400
F1353       F  0.93337097  0.19452720  0.26823951    -0.13900
C1354       C  0.00708083  0.23427420  0.21303816     0.15900
C1355       C  0.02329431  0.23083135  0.19384934     0.25300
C1356       C  0.04675946  0.21751953  0.19621482    -0.41000
C1357       C  0.05428409  0.20933198  0.21853994     0.32200
C1358       C  0.03796256  0.21258256  0.23757407     0.14000
F1359       F  0.98423842  0.24641699  0.21010798    -0.13400
F1360       F  0.07700921  0.19709659  0.22190664    -0.13900
F1361       F  0.01524617  0.23927122  0.17277955    -0.16200
F1362       F  0.04497408  0.20252249  0.25837204    -0.14700
F1363       F  0.96440655  0.20181042  0.23112169    -0.14700
F1364       F  0.99481261  0.23788591  0.31676983    -0.16100
C1365       C  0.02432000  0.12372434  0.37248249     0.13900
C1366       C  0.04620814  0.13950585  0.37306591     0.00900
C1367       C  0.04301498  0.16627773  0.37349953     0.15900
C1368       C  0.01837353  0.17704791  0.37235595     0.25300
C1369       C  0.99661402  0.16119823  0.37039250    -0.41100
C1370       C  0.99978912  0.13445809  0.37096010     0.32300
C1371       C  0.07224731  0.12807631  0.37126143     0.01000
F1372       F  0.06381994  0.18200788  0.37342445    -0.13400
F1373       F  0.97909624  0.11867527  0.36938500    -0.13900
C1374       C  0.07829366  0.11202378  0.35241031     0.15900
C1375       C  0.10305324  0.10209061  0.34989863     0.25300
C1376       C  0.12239167  0.10842641  0.36592469    -0.41000
C1377       C  0.11638538  0.12425182  0.38489549     0.32200
C1378       C  0.09142577  0.13380494  0.38767306     0.14000
F1379       F  0.06051846  0.10692386  0.33577640    -0.13400
F1380       F  0.13470212  0.13043936  0.40072170    -0.13900
F1381       F  0.10852188  0.08756949  0.33096680    -0.16200
F1382       F  0.08598678  0.14870358  0.40634439    -0.14700
F1383       F  0.02676907  0.09783412  0.37269202    -0.14700
F1384       F  0.01596779  0.20291026  0.37126072    -0.16100
C1385       C  0.82330801  0.02882035  0.37565046     0.13900
C1386       C  0.85020316  0.03188218  0.37718471     0.00900
C1387       C  0.86566968  0.00976069  0.37792621     0.15900
C1388       C  0.85482306  0.98540521  0.37501434     0.25300
C1389       C  0.82815321  0.98248067  0.37204216    -0.41100
C1390       C  0.81238215  0.00432013  0.37339583     0.32300
C1391       C  0.86233441  0.05784283  0.37560865     0.01000
F1392       F  0.89149417  0.01179333  0.38082730    -0.13400
F1393       F  0.78652978  0.00215998  0.37077575    -0.13900
C1394       C  0.85456034  0.07821909  0.39004380     0.15900
C1395       C  0.86494314  0.10288303  0.38705295     0.25300
C1396       C  0.88374497  0.10755342  0.36993665    -0.41000
C1397       C  0.89211112  0.08699857  0.35609591     0.32200
C1398       C  0.88129834  0.06260777  0.35865981     0.14000
F1399       F  0.83693707  0.07427467  0.40706983    -0.13400
F1400       F  0.90972693  0.09080143  0.33903088    -0.13900
F1401       F  0.85666281  0.12219367  0.40095014    -0.16200
F1402       F  0.88853227  0.04387165  0.34368355    -0.14700
F1403       F  0.80766948  0.04959397  0.37473345    -0.14700
F1404       F  0.87049512  0.96462744  0.37469095    -0.16100
C1405       C  0.03075835  0.12628458  0.59412238     0.13900
C1406       C  0.05354686  0.13951201  0.59922782     0.00900
C1407       C  0.05233455  0.16539968  0.60574630     0.15900
C1408       C  0.02853916  0.17720290  0.60927842     0.25300
C1409       C  0.00563131  0.16313226  0.60649803    -0.41100
C1410       C  0.00695566  0.13802383  0.59762835     0.32300
C1411       C  0.07799957  0.12542607  0.60158926     0.01000
F1412       F  0.07417533  0.17856378  0.61072363    -0.13400
F1413       F  0.98520698  0.12440272  0.59337638    -0.13900
C1414       C  0.09958242  0.13204055  0.58828154     0.15900
C1415       C  0.12353440  0.12107519  0.59310498     0.25300
C1416       C  0.12632088  0.10346620  0.61155400    -0.41000
C1417       C  0.10421474  0.09601817  0.62408793     0.32200
C1418       C  0.08037610  0.10693537  0.61913142     0.14000
F1419       F  0.09756680  0.14967282  0.57105742    -0.13400
F1420       F  0.10570283  0.07911239  0.64195138    -0.13900
F1421       F  0.14410097  0.12852203  0.58022830    -0.16200
F1422       F  0.05981209  0.10060724  0.63251568    -0.14700
F1423       F  0.03159058  0.10149978  0.58703741    -0.14700
F1424       F  0.02808128  0.20162279  0.61736399    -0.16100
C1425       C  0.89193269  0.06467752  0.61565283     0.13900
C1426       C  0.86838763  0.06316193  0.60365507     0.00900
C1427       C  0.85810226  0.08569034  0.59400970     0.15900
C1428       C  0.87007964  0.10941327  0.59770069     0.25300
C1429       C  0.89290083  0.11112254  0.61088700    -0.41100
C1430       C  0.90420046  0.08826327  0.61894221     0.32300
C1431       C  0.85378586  0.03852806  0.60306620     0.01000
F1432       F  0.83603120  0.08485058  0.58145736    -0.13400
F1433       F  0.92675273  0.08869697  0.63079871    -0.13900
C1434       C  0.82821769  0.03742405  0.61114994     0.15900
C1435       C  0.81586103  0.01381173  0.61428519     0.25300
C1436       C  0.82906148  0.99076055  0.61007510    -0.41000
C1437       C  0.85394022  0.99191931  0.60043709     0.32200
C1438       C  0.86602030  0.01554599  0.59669802     0.14000
F1439       F  0.81575243  0.05908521  0.61769030    -0.13400
F1440       F  0.86692139  0.97011075  0.59521889    -0.13900
F1441       F  0.79168105  0.01355829  0.62317321    -0.16200
F1442       F  0.89007258  0.01591812  0.58752676    -0.14700
F1443       F  0.90240971  0.04349082  0.62549928    -0.14700
F1444       F  0.85855364  0.13078497  0.58924066    -0.16100
C1445       C  0.91002453  0.18069621  0.46982503     0.13900
C1446       C  0.91353540  0.20424032  0.48116381     0.00900
C1447       C  0.91645654  0.22673061  0.46804450     0.15900
C1448       C  0.91604693  0.22567267  0.44385728     0.25300
C1449       C  0.91232665  0.20213070  0.43251086    -0.41100
C1450       C  0.90923021  0.17966788  0.44565664     0.32300
C1451       C  0.91446440  0.20529581  0.50668129     0.01000
F1452       F  0.91919291  0.24977101  0.47870221    -0.13400
F1453       F  0.90607343  0.15663030  0.43508653    -0.13900
C1454       C  0.93628916  0.21510137  0.51786308     0.15900
C1455       C  0.93738808  0.21593629  0.54201955     0.25300
C1456       C  0.91664641  0.20678190  0.55546299    -0.41000
C1457       C  0.89481603  0.19683015  0.54412234     0.32200
C1458       C  0.89372490  0.19622725  0.51993463     0.14000
F1459       F  0.95683279  0.22334128  0.50534472    -0.13400
F1460       F  0.87476114  0.18702198  0.55634240    -0.13900
F1461       F  0.95886805  0.22563280  0.55214383    -0.16200
F1462       F  0.87234837  0.18682869  0.50941444    -0.14700
F1463       F  0.90787461  0.15863943  0.48217259    -0.14700
F1464       F  0.91843884  0.24775205  0.43156850    -0.16100
C1465       C  0.03680708  0.24277254  0.75824990     0.13900
C1466       C  0.01023972  0.23927185  0.75481051     0.00900
C1467       C  0.99429683  0.23547818  0.77426731     0.15900
C1468       C  0.00511476  0.23214427  0.79634458     0.25300
C1469       C  0.03187809  0.23307863  0.79927092    -0.41100
C1470       C  0.04753849  0.23967940  0.78035694     0.32300
C1471       C  0.00012228  0.23427531  0.73111419     0.01000
F1472       F  0.96854021  0.23249820  0.77158081    -0.13400
F1473       F  0.07344624  0.24095158  0.78294463    -0.13900
C1474       C  0.00997576  0.21341177  0.71851941     0.15900
C1475       C  0.99897432  0.20612107  0.69745280     0.25300
C1476       C  0.97782378  0.21953672  0.68836931    -0.41000
C1477       C  0.96838991  0.24098432  0.70053391     0.32200
C1478       C  0.97939377  0.24822256  0.72182721     0.14000
F1479       F  0.02956677  0.19917816  0.72723142    -0.13400
F1480       F  0.94771114  0.25409565  0.69245478    -0.13900
F1481       F  0.00887576  0.18559678  0.68607316    -0.16200
F1482       F  0.96952534  0.26849931  0.73357028    -0.14700
F1483       F  0.05255955  0.24719161  0.73986739    -0.14700
F1484       F  0.98966006  0.22613195  0.81454943    -0.16100
C1485       C  0.84740581  0.15436859  0.77820565     0.13900
C1486       C  0.84146182  0.14381565  0.75642218     0.00900
C1487       C  0.82636510  0.12157607  0.75521610     0.15900
C1488       C  0.81901182  0.10893183  0.77551881     0.25300
C1489       C  0.82660434  0.11840424  0.79736378    -0.41100
C1490       C  0.83998026  0.14180862  0.79856024     0.32300
C1491       C  0.85457402  0.15324740  0.73536656     0.01000
F1492       F  0.82042155  0.11101135  0.73435441    -0.13400
F1493       F  0.84758281  0.15156184  0.81930363    -0.13900
C1494       C  0.88143620  0.15169911  0.73419239     0.15900
C1495       C  0.89433607  0.15789087  0.71379507     0.25300
C1496       C  0.88059140  0.16569238  0.69387723    -0.41000
C1497       C  0.85357946  0.16770889  0.69523318     0.32200
C1498       C  0.84070006  0.16149960  0.71585025     0.14000
F1499       F  0.89520865  0.14293941  0.75258285    -0.13400
F1500       F  0.83953353  0.17525850  0.67659246    -0.13900
F1501       F  0.92032099  0.15534462  0.71352666    -0.16200
F1502       F  0.81467935  0.16324763  0.71670884    -0.14700
F1503       F  0.86173820  0.17605943  0.77970020    -0.14700
F1504       F  0.80529238  0.08687756  0.77374706    -0.16100
C1505       C  0.34930805  0.18452852  0.61559164     0.13900
C1506       C  0.34600200  0.17268471  0.63725185     0.00900
C1507       C  0.35965481  0.18197118  0.65657591     0.15900
C1508       C  0.37551517  0.20362992  0.65441162     0.25300
C1509       C  0.37724901  0.21654049  0.63304947    -0.41100
C1510       C  0.36461382  0.20639466  0.61354175     0.32300
C1511       C  0.32514069  0.15365633  0.63997602     0.01000
F1512       F  0.35663554  0.17079348  0.67768154    -0.13400
F1513       F  0.36645670  0.21821317  0.59259521    -0.13900
C1514       C  0.32748857  0.12876358  0.63102838     0.15900
C1515       C  0.30593243  0.11262319  0.62971172     0.25300
C1516       C  0.28154590  0.12135165  0.63700417    -0.41000
C1517       C  0.27976587  0.14596875  0.64711902     0.32200
C1518       C  0.30132363  0.16184440  0.64853969     0.14000
F1519       F  0.35046878  0.12046747  0.62278905    -0.13400
F1520       F  0.25695226  0.15531179  0.65484098    -0.13900
F1521       F  0.30881549  0.08892428  0.62039496    -0.16200
F1522       F  0.29858736  0.18598424  0.65696905    -0.14700
F1523       F  0.33625054  0.17590481  0.59673458    -0.14700
F1524       F  0.38761115  0.21305354  0.67346515    -0.16100
C1525       C  0.34441865  0.19437905  0.33448484     0.13900
C1526       C  0.34802568  0.17259076  0.34839396     0.00900
C1527       C  0.37019305  0.17081074  0.36222597     0.15900
C1528       C  0.38726787  0.19157939  0.36376363     0.25300
C1529       C  0.38215031  0.21445489  0.35164359    -0.41100
C1530       C  0.36125847  0.21510973  0.33608119     0.32300
C1531       C  0.32622854  0.15471260  0.35183637     0.01000
F1532       F  0.37409977  0.14989770  0.37576269    -0.13400
F1533       F  0.35630137  0.23636597  0.32323187    -0.13900
C1534       C  0.32729083  0.12881164  0.34525271     0.15900
C1535       C  0.30560995  0.11290278  0.34802579     0.25300
C1536       C  0.28264687  0.12273665  0.35759047    -0.41000
C1537       C  0.28226552  0.14866605  0.36475520     0.32200
C1538       C  0.30368946  0.16427724  0.36187951     0.14000
F1539       F  0.34906567  0.11914005  0.33569350    -0.13400
F1540       F  0.26102204  0.15940032  0.37441184    -0.13900
F1541       F  0.30708021  0.08807709  0.34119937    -0.16200
F1542       F  0.30240175  0.18906426  0.36898172    -0.14700
F1543       F  0.32340073  0.19631707  0.32061027    -0.14700
F1544       F  0.40749616  0.19004480  0.37857368    -0.16100
C1545       C  0.40012460  0.29446297  0.51826753     0.13900
C1546       C  0.41179685  0.27285055  0.50844027     0.00900
C1547       C  0.42183586  0.25369579  0.52280618     0.15900
C1548       C  0.42023681  0.25607582  0.54688920     0.25300
C1549       C  0.40872700  0.27787903  0.55695586    -0.41100
C1550       C  0.39859932  0.29702837  0.54233765     0.32300
C1551       C  0.41373913  0.27057037  0.48310565     0.01000
F1552       F  0.43297928  0.23257477  0.51344892    -0.13400
F1553       F  0.38776111  0.31854665  0.55123785    -0.13900
C1554       C  0.43758592  0.27356989  0.47211769     0.15900
C1555       C  0.43916259  0.27341936  0.44793636     0.25300
C1556       C  0.41678719  0.27023561  0.43441027    -0.41000
C1557       C  0.39305190  0.26617392  0.44563903     0.32200
C1558       C  0.39157735  0.26645588  0.46981675     0.14000
F1559       F  0.45918840  0.27761142  0.48483643    -0.13400
F1560       F  0.37123129  0.26195892  0.43328137    -0.13900
F1561       F  0.46243383  0.27742000  0.43785628    -0.16200
F1562       F  0.36848104  0.26287921  0.48033194    -0.14700
F1563       F  0.39071714  0.31335390  0.50447460    -0.14700
F1564       F  0.42968751  0.23685413  0.56026714    -0.16100
C1565       C  0.16135769  0.69071337  0.65027962     0.13900
C1566       C  0.15841106  0.67082698  0.63406492     0.00900
C1567       C  0.13863572  0.67255663  0.61744288     0.15900
C1568       C  0.12283074  0.69428012  0.61644336     0.25300
C1569       C  0.12655891  0.71466597  0.63206041    -0.41100
C1570       C  0.14562795  0.71237608  0.64929413     0.32300
C1571       C  0.17812999  0.65029199  0.63262786     0.01000
F1572       F  0.13533560  0.65363229  0.60155492    -0.13400
F1573       F  0.14963774  0.73155072  0.66481045    -0.13900
C1574       C  0.18441085  0.63506861  0.65204545     0.15900
C1575       C  0.20575925  0.61858708  0.65138593     0.25300
C1576       C  0.22109012  0.61726452  0.63133244    -0.41000
C1577       C  0.21391904  0.63145948  0.61160801     0.32200
C1578       C  0.19278220  0.64783239  0.61226530     0.14000
F1579       F  0.17045333  0.63691970  0.67189386    -0.13400
F1580       F  0.22815843  0.63029348  0.59185171    -0.13900
F1581       F  0.21248575  0.60543306  0.67078182    -0.16200
F1582       F  0.18776824  0.66268303  0.59344744    -0.14700
F1583       F  0.18063993  0.68998537  0.66614793    -0.14700
F1584       F  0.10514269  0.69611447  0.59919803    -0.16100
C1585       C  0.36954943  0.47348513  0.62164057     0.13900
C1586       C  0.35539712  0.45507014  0.60926663     0.00900
C1587       C  0.33129267  0.46196197  0.60013201     0.15900
C1588       C  0.32055862  0.48598931  0.60501023     0.25300
C1589       C  0.33378196  0.50368746  0.61915333    -0.41100
C1590       C  0.35893640  0.49754158  0.62646232     0.32300
C1591       C  0.36398903  0.42787444  0.60901402     0.01000
F1592       F  0.31764759  0.44493818  0.58725189    -0.13400
F1593       F  0.37311858  0.51451562  0.63891460    -0.13900
C1594       C  0.34825418  0.40910900  0.61925506     0.15900
C1595       C  0.35696347  0.38398628  0.62184491     0.25300
C1596       C  0.38187954  0.37704626  0.61466547    -0.41000
C1597       C  0.39745037  0.39556827  0.60379402     0.32200
C1598       C  0.38849251  0.42075365  0.60081971     0.14000
F1599       F  0.32492205  0.41547976  0.62812398    -0.13400
F1600       F  0.42130851  0.38929609  0.59612018    -0.13900
F1601       F  0.34152344  0.36684485  0.63283455    -0.16200
F1602       F  0.40384100  0.43825646  0.59022387    -0.14700
F1603       F  0.39302403  0.46761448  0.63044449    -0.14700
F1604       F  0.29667636  0.49129648  0.59683160    -0.16100
C1605       C  0.16368534  0.68675769  0.37910370     0.13900
C1606       C  0.16026287  0.66859300  0.36144844     0.00900
C1607       C  0.14090285  0.67247737  0.34480820     0.15900
C1608       C  0.12594808  0.69488246  0.34519609     0.25300
C1609       C  0.13058723  0.71395822  0.36197493    -0.41100
C1610       C  0.14908001  0.70922651  0.37936272     0.32300
C1611       C  0.17959449  0.64801673  0.35854662     0.01000
F1612       F  0.13724908  0.65504236  0.32765016    -0.13400
F1613       F  0.15339998  0.72661233  0.39646287    -0.13900
C1614       C  0.17905753  0.62572073  0.37220656     0.15900
C1615       C  0.19971782  0.60838077  0.37160908     0.25300
C1616       C  0.22140013  0.61335317  0.35755761    -0.41000
C1617       C  0.22114930  0.63521901  0.34314740     0.32200
C1618       C  0.20049981  0.65229173  0.34368732     0.14000
F1619       F  0.15902794  0.62129985  0.38678713    -0.13400
F1620       F  0.24138156  0.64070767  0.32908024    -0.13900
F1621       F  0.19917765  0.58767388  0.38586115    -0.16200
F1622       F  0.20156047  0.67390794  0.33060328    -0.14700
F1623       F  0.18220805  0.68333841  0.39542059    -0.14700
F1624       F  0.10804549  0.69855333  0.32839253    -0.16100
C1625       C  0.36397487  0.46397636  0.39231662     0.13900
C1626       C  0.35092677  0.44135203  0.38647049     0.00900
C1627       C  0.32486322  0.44266228  0.38010727     0.15900
C1628       C  0.31252949  0.46642839  0.37814274     0.25300
C1629       C  0.32615149  0.48927810  0.38240944    -0.41100
C1630       C  0.35174278  0.48768948  0.39037644     0.32300
C1631       C  0.36528314  0.41693750  0.38442315     0.01000
F1632       F  0.31191333  0.42107573  0.37409098    -0.13400
F1633       F  0.36536946  0.50919564  0.39534950    -0.13900
C1634       C  0.35847953  0.39537930  0.39764179     0.15900
C1635       C  0.37110016  0.37194272  0.39426035     0.25300
C1636       C  0.39067505  0.36961666  0.37738076    -0.41000
C1637       C  0.39805325  0.39169315  0.36485776     0.32200
C1638       C  0.38541526  0.41496615  0.36828717     0.14000
F1639       F  0.33936948  0.39697153  0.41363532    -0.13400
F1640       F  0.41696096  0.39074593  0.34861282    -0.13900
F1641       F  0.36352109  0.35142071  0.40702536    -0.16200
F1642       F  0.39209982  0.43540917  0.35499204    -0.14700
F1643       F  0.38901000  0.46315706  0.39895334    -0.14700
F1644       F  0.28794411  0.46709156  0.37025973    -0.16100
C1645       C  0.29413394  0.60037653  0.52070152     0.13900
C1646       C  0.27727237  0.58248945  0.51076242     0.00900
C1647       C  0.26356940  0.56568204  0.52520760     0.15900
C1648       C  0.26690471  0.56654156  0.54926625     0.25300
C1649       C  0.28407514  0.58433981  0.55936338    -0.41100
C1650       C  0.29752458  0.60134420  0.54472354     0.32300
C1651       C  0.27543780  0.58042011  0.48523870     0.01000
F1652       F  0.24690609  0.54841910  0.51598840    -0.13400
F1653       F  0.31411206  0.61892115  0.55352152    -0.13900
C1654       C  0.28301442  0.55772585  0.47416011     0.15900
C1655       C  0.28403301  0.55646198  0.44998035     0.25300
C1656       C  0.27752834  0.57796081  0.43638645    -0.41000
C1657       C  0.26921150  0.60046528  0.44752599     0.32200
C1658       C  0.26805824  0.60161679  0.47177389     0.14000
F1659       F  0.29054457  0.53709676  0.48680549    -0.13400
F1660       F  0.26201089  0.62127363  0.43498701    -0.13900
F1661       F  0.29250270  0.53449376  0.43994681    -0.16200
F1662       F  0.25983020  0.62345874  0.48217349    -0.14700
F1663       F  0.30796215  0.61647669  0.50701637    -0.14700
F1664       F  0.25339742  0.54974654  0.56254037    -0.16100
C1665       C  0.68063724  0.78039870  0.63572417     0.13900
C1666       C  0.66962390  0.80496880  0.63566254     0.00900
C1667       C  0.64271532  0.80722179  0.63433120     0.15900
C1668       C  0.62709341  0.78525741  0.63322060     0.25300
C1669       C  0.63816466  0.76063830  0.63310154    -0.41100
C1670       C  0.66515721  0.75853034  0.63440448     0.32300
C1671       C  0.68653324  0.82797469  0.63680194     0.01000
F1672       F  0.63157318  0.83071228  0.63425333    -0.13400
F1673       F  0.67669474  0.73520311  0.63461986    -0.13900
C1674       C  0.68780743  0.84536212  0.61814281     0.15900
C1675       C  0.70643556  0.86487988  0.61787457     0.25300
C1676       C  0.72419449  0.86714533  0.63616960    -0.41000
C1677       C  0.72195351  0.85062404  0.65537064     0.32200
C1678       C  0.70326233  0.83132192  0.65572508     0.14000
F1679       F  0.67232019  0.84223885  0.59939303    -0.13400
F1680       F  0.73868424  0.85249277  0.67338832    -0.13900
F1681       F  0.70863387  0.87999588  0.59879227    -0.16200
F1682       F  0.70215689  0.81517089  0.67418087    -0.14700
F1683       F  0.70657408  0.77756724  0.63659717    -0.14700
F1684       F  0.60122846  0.78811418  0.63155756    -0.16100
C1685       C  0.48050175  0.63132914  0.60691562     0.13900
C1686       C  0.45914070  0.64572383  0.61433803     0.00900
C1687       C  0.46320803  0.67042982  0.62345207     0.15900
C1688       C  0.48819867  0.67999788  0.62609540     0.25300
C1689       C  0.50945915  0.66490491  0.62000337    -0.41100
C1690       C  0.50548545  0.64070372  0.61006254     0.32300
C1691       C  0.43309699  0.63395358  0.61505885     0.01000
F1692       F  0.44312012  0.68459381  0.63128511    -0.13400
F1693       F  0.52585220  0.62591474  0.60395898    -0.13900
C1694       C  0.42924300  0.61101973  0.62737157     0.15900
C1695       C  0.40457036  0.60085693  0.63014122     0.25300
C1696       C  0.38296965  0.61359473  0.62091704    -0.41000
C1697       C  0.38695276  0.63616991  0.60790593     0.32200
C1698       C  0.41177265  0.64618484  0.60497733     0.14000
F1699       F  0.44929554  0.59909682  0.63788753    -0.13400
F1700       F  0.36682385  0.64885528  0.59828762    -0.13900
F1701       F  0.40185468  0.57918400  0.64294716    -0.16200
F1702       F  0.41494386  0.66803347  0.59250830    -0.14700
F1703       F  0.47715474  0.60783551  0.59727475    -0.14700
F1704       F  0.49172953  0.70324819  0.63616877    -0.16100
C1705       C  0.63293307  0.81057831  0.37295110     0.13900
C1706       C  0.65573459  0.81104686  0.35981705     0.00900
C1707       C  0.66168984  0.79001486  0.34569044     0.15900
C1708       C  0.64575085  0.76845755  0.34525185     0.25300
C1709       C  0.62332276  0.76733091  0.35903778    -0.41100
C1710       C  0.61670598  0.78899708  0.37241908     0.32300
C1711       C  0.67500767  0.83187728  0.36238076     0.01000
F1712       F  0.68383354  0.78980507  0.33319388    -0.13400
F1713       F  0.59530417  0.78883781  0.38592158    -0.13900
C1714       C  0.69116220  0.83208749  0.38186927     0.15900
C1715       C  0.71294115  0.84784197  0.38238137     0.25300
C1716       C  0.71895146  0.86395150  0.36345579    -0.41000
C1717       C  0.70175146  0.86506286  0.34463029     0.32200
C1718       C  0.68007834  0.84892928  0.34400873     0.14000
F1719       F  0.68677054  0.81574777  0.39979312    -0.13400
F1720       F  0.70686078  0.88035923  0.32614129    -0.13900
F1721       F  0.72866677  0.84672867  0.40117537    -0.16200
F1722       F  0.66465408  0.84905827  0.32501269    -0.14700
F1723       F  0.62679054  0.83070114  0.38679141    -0.14700
F1724       F  0.65279641  0.74834512  0.33173237    -0.16100
C1725       C  0.42209149  0.59825700  0.38744280     0.13900
C1726       C  0.42581070  0.62482551  0.38467679     0.00900
C1727       C  0.40425935  0.64067467  0.38146520     0.15900
C1728       C  0.37964919  0.63005947  0.37991601     0.25300
C1729       C  0.37623408  0.60339650  0.38097423    -0.41100
C1730       C  0.39751732  0.58758152  0.38520023     0.32300
C1731       C  0.45210355  0.63556270  0.38204953     0.01000
F1732       F  0.40720868  0.66621296  0.37790065    -0.13400
F1733       F  0.39457217  0.56177818  0.38649217    -0.13900
C1734       C  0.46847242  0.62557900  0.36489979     0.15900
C1735       C  0.49249236  0.63656312  0.36082842     0.25300
C1736       C  0.50068756  0.65808347  0.37361794    -0.41000
C1737       C  0.48430719  0.66822467  0.39073613     0.32200
C1738       C  0.46029405  0.65689365  0.39506938     0.14000
F1739       F  0.46068676  0.60586399  0.35120932    -0.13400
F1740       F  0.49156709  0.68896898  0.40333523    -0.13900
F1741       F  0.50717495  0.62684171  0.34343019    -0.16200
F1742       F  0.44499499  0.66678235  0.41192560    -0.14700
F1743       F  0.44243213  0.58255860  0.39135615    -0.14700
F1744       F  0.35943020  0.64565708  0.37521308    -0.16100
C1745       C  0.61474678  0.70107992  0.47022098     0.13900
C1746       C  0.59279673  0.70492550  0.48391422     0.00900
C1747       C  0.56902724  0.70945907  0.47316242     0.15900
C1748       C  0.56710172  0.70975254  0.44900083     0.25300
C1749       C  0.58898005  0.70528512  0.43513212    -0.41100
C1750       C  0.61289676  0.70111339  0.44608856     0.32300
C1751       C  0.59451788  0.70336919  0.50941621     0.01000
F1752       F  0.54747940  0.71289913  0.48610515    -0.13400
F1753       F  0.63459733  0.69672972  0.43358261    -0.13900
C1754       C  0.58645432  0.72396136  0.52324899     0.15900
C1755       C  0.58727810  0.72212623  0.54740402     0.25300
C1756       C  0.59648796  0.69969090  0.55815809    -0.41000
C1757       C  0.60483318  0.67916380  0.54415342     0.32200
C1758       C  0.60375932  0.68099950  0.52002024     0.14000
F1759       F  0.57813076  0.74603695  0.51332137    -0.13400
F1760       F  0.61358890  0.65705133  0.55371451    -0.13900
F1761       F  0.57945544  0.74253339  0.56017853    -0.16200
F1762       F  0.61123041  0.66065918  0.50696712    -0.14700
F1763       F  0.63806350  0.69731498  0.48025646    -0.14700
F1764       F  0.54372927  0.71414130  0.43931028    -0.16100
C1765       C  0.87095426  0.30808319  0.61668706     0.13900
C1766       C  0.85150796  0.31075078  0.63348960     0.00900
C1767       C  0.84909197  0.29200305  0.65089101     0.15900
C1768       C  0.86493957  0.27035163  0.65081534     0.25300
C1769       C  0.88365697  0.26710452  0.63342141    -0.41100
C1770       C  0.88694996  0.28651449  0.61668736     0.32300
C1771       C  0.83162196  0.33100823  0.63120407     0.01000
F1772       F  0.83026017  0.29383878  0.66713330    -0.13400
F1773       F  0.90444052  0.28381077  0.59934652    -0.13900
C1774       C  0.81599074  0.33151176  0.61133732     0.15900
C1775       C  0.79459517  0.34758054  0.61035289     0.25300
C1776       C  0.78824210  0.36348900  0.62924299    -0.41000
C1777       C  0.80482784  0.36434477  0.64849913     0.32200
C1778       C  0.82632335  0.34808726  0.64951760     0.14000
F1779       F  0.82043879  0.31517747  0.59343417    -0.13400
F1780       F  0.79930667  0.37957168  0.66692846    -0.13900
F1781       F  0.77948908  0.34693485  0.59112664    -0.16200
F1782       F  0.84147868  0.34835436  0.66869307    -0.14700
F1783       F  0.87377014  0.32590562  0.59970051    -0.14700
F1784       F  0.86149484  0.25219729  0.66741691    -0.16100
C1785       C  0.67745372  0.52435332  0.61827525     0.13900
C1786       C  0.65036168  0.52577636  0.61798617     0.00900
C1787       C  0.63609072  0.50289444  0.61925233     0.15900
C1788       C  0.64854646  0.47936860  0.62209189     0.25300
C1789       C  0.67553566  0.47811137  0.62297422    -0.41100
C1790       C  0.68990571  0.50068035  0.62032473     0.32300
C1791       C  0.63716859  0.55112857  0.61780140     0.01000
F1792       F  0.61002479  0.50331831  0.61806478    -0.13400
F1793       F  0.71597376  0.50003350  0.62137482    -0.13900
C1794       C  0.64421320  0.57013510  0.60165746     0.15900
C1795       C  0.63421535  0.59495450  0.60338851     0.25300
C1796       C  0.61629251  0.60107834  0.62080081    -0.41000
C1797       C  0.60793993  0.58166918  0.63599964     0.32200
C1798       C  0.61854485  0.55707360  0.63474867     0.14000
F1799       F  0.66117691  0.56479300  0.58441153    -0.13400
F1800       F  0.59097507  0.58696956  0.65327225    -0.13900
F1801       F  0.64242766  0.61316788  0.58827493    -0.16200
F1802       F  0.61176169  0.53957423  0.65109469    -0.14700
F1803       F  0.69191874  0.54600594  0.61798576    -0.14700
F1804       F  0.63419635  0.45774650  0.62424116    -0.16100
C1805       C  0.52761054  0.35537810  0.61089625     0.13900
C1806       C  0.54819135  0.33810647  0.61367165     0.00900
C1807       C  0.54264123  0.31179754  0.61589012     0.15900
C1808       C  0.51708550  0.30320743  0.61658224     0.25300
C1809       C  0.49663823  0.32079429  0.61569566    -0.41100
C1810       C  0.50211531  0.34686767  0.61231091     0.32300
C1811       C  0.57500609  0.34791592  0.61640805     0.01000
F1812       F  0.56185154  0.29457458  0.61908303    -0.13400
F1813       F  0.48273289  0.36420310  0.61094849    -0.13900
C1814       C  0.58022313  0.36703964  0.63296904     0.15900
C1815       C  0.60512635  0.37658428  0.63588503     0.25300
C1816       C  0.62571709  0.36688221  0.62267149    -0.41000
C1817       C  0.62069700  0.34728867  0.60645544     0.32200
C1818       C  0.59555351  0.33808053  0.60319456     0.14000
F1819       F  0.56126758  0.37591077  0.64704581    -0.13400
F1820       F  0.64007169  0.33715639  0.59360928    -0.13900
F1821       F  0.60921548  0.39455727  0.65251895    -0.16200
F1822       F  0.59127829  0.31972846  0.58695684    -0.14700
F1823       F  0.53223121  0.38070883  0.60754532    -0.14700
F1824       F  0.51236009  0.27792127  0.62012353    -0.16100
C1825       C  0.84401326  0.29674757  0.37725999     0.13900
C1826       C  0.84576260  0.31307940  0.35798103     0.00900
C1827       C  0.86394552  0.30766830  0.34055056     0.15900
C1828       C  0.87974154  0.28586974  0.34219166     0.25300
C1829       C  0.87715649  0.26890789  0.36107473    -0.41100
C1830       C  0.85942072  0.27490840  0.37877375     0.32300
C1831       C  0.82668244  0.33404707  0.35536909     0.01000
F1832       F  0.86591005  0.32314752  0.32169554    -0.13400
F1833       F  0.85659328  0.25929712  0.39747058    -0.13900
C1834       C  0.82594588  0.35451228  0.37124795     0.15900
C1835       C  0.80509100  0.37157869  0.37144241     0.25300
C1836       C  0.78440228  0.36814501  0.35600309    -0.41000
C1837       C  0.78588807  0.34840389  0.33934952     0.32200
C1838       C  0.80686031  0.33163103  0.33898842     0.14000
F1839       F  0.84486846  0.35720879  0.38728330    -0.13400
F1840       F  0.76648724  0.34468675  0.32393360    -0.13900
F1841       F  0.80423237  0.39018912  0.38787782    -0.16200
F1842       F  0.80691810  0.31187566  0.32366179    -0.14700
F1843       F  0.82632977  0.30125391  0.39412482    -0.14700
F1844       F  0.89645688  0.28061531  0.32472910    -0.16100
C1845       C  0.67755917  0.53688753  0.37456538     0.13900
C1846       C  0.65153707  0.53783397  0.38103069     0.00900
C1847       C  0.63838035  0.51492275  0.38565185     0.15900
C1848       C  0.65063146  0.49130996  0.38267080     0.25300
C1849       C  0.67633797  0.49018650  0.37498392    -0.41100
C1850       C  0.68990148  0.51326774  0.37156965     0.32300
C1851       C  0.63723891  0.56227880  0.37960045     0.01000
F1852       F  0.61328864  0.51545335  0.39214385    -0.13400
F1853       F  0.71446367  0.51303962  0.36357831    -0.13900
C1854       C  0.61965954  0.56588155  0.36146310     0.15900
C1855       C  0.60767237  0.58952103  0.35827732     0.25300
C1856       C  0.61309685  0.61030277  0.37320416    -0.41000
C1857       C  0.62985646  0.60620202  0.39213244     0.32200
C1858       C  0.64193954  0.58241426  0.39517632     0.14000
F1859       F  0.61500404  0.54672459  0.34607629    -0.13400
F1860       F  0.63513253  0.62532217  0.40737673    -0.13900
F1861       F  0.59149831  0.59215468  0.33993430    -0.16200
F1862       F  0.65851363  0.57912591  0.41312265    -0.14700
F1863       F  0.69046973  0.55881537  0.36953161    -0.14700
F1864       F  0.63705841  0.46950944  0.38661334    -0.16100
C1865       C  0.58145935  0.37684457  0.36800236     0.13900
C1866       C  0.57894023  0.35527986  0.38243144     0.00900
C1867       C  0.60079932  0.34586456  0.39394133     0.15900
C1868       C  0.62491122  0.35728470  0.39045428     0.25300
C1869       C  0.62764288  0.37833376  0.37525965    -0.41100
C1870       C  0.60543508  0.38832195  0.36453954     0.32300
C1871       C  0.55379883  0.34182090  0.38388985     0.01000
F1872       F  0.59888748  0.32526077  0.40822380    -0.13400
F1873       F  0.60689355  0.40883707  0.35010068    -0.13900
C1874       C  0.55157453  0.31624765  0.37649836     0.15900
C1875       C  0.52733969  0.30490346  0.37395275     0.25300
C1876       C  0.50482475  0.31904885  0.37847631    -0.41000
C1877       C  0.50716956  0.34409524  0.38727817     0.32200
C1878       C  0.53143451  0.35528382  0.39010956     0.14000
F1879       F  0.57276404  0.30281783  0.37009179    -0.13400
F1880       F  0.48593591  0.35804840  0.39253236    -0.13900
F1881       F  0.52594270  0.28075183  0.36529810    -0.16200
F1882       F  0.53309078  0.37966455  0.39816625    -0.14700
F1883       F  0.56083148  0.38605227  0.35622063    -0.14700
F1884       F  0.64569414  0.34694017  0.40117066    -0.16100
C1885       C  0.71755117  0.42467548  0.47217386     0.13900
C1886       C  0.72664725  0.40264034  0.48357307     0.00900
C1887       C  0.73566991  0.38198508  0.47016707     0.15900
C1888       C  0.73479810  0.38298822  0.44588799     0.25300
C1889       C  0.72531454  0.40486957  0.43448756    -0.41100
C1890       C  0.71704642  0.42585676  0.44789162     0.32300
C1891       C  0.72561696  0.40078418  0.50934576     0.01000
F1892       F  0.74550021  0.36083922  0.48061054    -0.13400
F1893       F  0.70743417  0.44715673  0.43752624    -0.13900
C1894       C  0.71232722  0.38050653  0.52003353     0.15900
C1895       C  0.71050287  0.37902369  0.54423996     0.25300
C1896       C  0.72181271  0.39794776  0.55844603    -0.41000
C1897       C  0.73526359  0.41822511  0.54763973     0.32200
C1898       C  0.73720181  0.41953682  0.52339555     0.14000
F1899       F  0.70055718  0.36231002  0.50696625    -0.13400
F1900       F  0.74640725  0.43703216  0.56043852    -0.13900
F1901       F  0.69772720  0.35886007  0.55367058    -0.16200
F1902       F  0.75068494  0.43905011  0.51362994    -0.14700
F1903       F  0.70821384  0.44473732  0.48456252    -0.14700
F1904       F  0.74358714  0.36265612  0.43352516    -0.16100
C1905       C  0.18009115  0.35976701  0.84632131     0.13900
C1906       C  0.17502932  0.34081253  0.86316021     0.00900
C1907       C  0.19254203  0.33756794  0.88149913     0.15900
C1908       C  0.21524558  0.35185637  0.88232321     0.25300
C1909       C  0.22110034  0.36976836  0.86482183    -0.41100
C1910       C  0.20290309  0.37424064  0.84720321     0.32300
C1911       C  0.15350607  0.32218995  0.86036814     0.01000
F1912       F  0.18846004  0.31937990  0.89795170    -0.13400
F1913       F  0.20782544  0.39150931  0.83014450    -0.13900
C1914       C  0.15275403  0.30630069  0.84066882     0.15900
C1915       C  0.13625859  0.28513665  0.83991706     0.25300
C1916       C  0.12006998  0.27942218  0.85878821    -0.41000
C1917       C  0.11932035  0.29638073  0.87775716     0.32200
C1918       C  0.13597788  0.31755332  0.87857303     0.14000
F1919       F  0.16946555  0.31004525  0.82287431    -0.13400
F1920       F  0.10405034  0.29131032  0.89633167    -0.13900
F1921       F  0.13692584  0.26949040  0.82109728    -0.16200
F1922       F  0.13591964  0.33279560  0.89766899    -0.14700
F1923       F  0.16327992  0.36371355  0.82866097    -0.14700
F1924       F  0.23184813  0.34777922  0.90013585    -0.16100
C1925       C  0.25637638  0.49220543  0.78018530     0.13900
C1926       C  0.26623840  0.48436803  0.75856519     0.00900
C1927       C  0.27886828  0.46065482  0.75696242     0.15900
C1928       C  0.28336816  0.44606417  0.77684348     0.25300
C1929       C  0.27562019  0.45500863  0.79883193    -0.41100
C1930       C  0.26109345  0.47769515  0.80020848     0.32300
C1931       C  0.26686077  0.50224403  0.73851974     0.01000
F1932       F  0.28865972  0.45247031  0.73640747    -0.13400
F1933       F  0.25306154  0.48682387  0.82105307    -0.13900
C1934       C  0.27924863  0.52603917  0.74084956     0.15900
C1935       C  0.28391299  0.54138223  0.72142755     0.25300
C1936       C  0.27654840  0.53316578  0.69909961    -0.41000
C1937       C  0.26296671  0.50986056  0.69693559     0.32200
C1938       C  0.25813236  0.49461012  0.71648569     0.14000
F1939       F  0.28842984  0.53372314  0.76178749    -0.13400
F1940       F  0.25563948  0.50100999  0.67578345    -0.13900
F1941       F  0.29651576  0.56391588  0.72448334    -0.16200
F1942       F  0.24573529  0.47190339  0.71377414    -0.14700
F1943       F  0.24326785  0.51458409  0.78205847    -0.14700
F1944       F  0.29639123  0.42365061  0.77465641    -0.16100
C1945       C  0.33747425  0.34672519  0.71626355     0.13900
C1946       C  0.33061691  0.32624371  0.73076389     0.00900
C1947       C  0.33477741  0.30098378  0.72324484     0.15900
C1948       C  0.34693221  0.29632883  0.70191769     0.25300
C1949       C  0.35560194  0.31695133  0.68828640    -0.41100
C1950       C  0.35005777  0.34213914  0.69528939     0.32300
C1951       C  0.32371394  0.33178019  0.75508551     0.01000
F1952       F  0.32833460  0.28097279  0.73713400    -0.13400
F1953       F  0.35777394  0.36239355  0.68222182    -0.13900
C1954       C  0.30004102  0.34316861  0.76072619     0.15900
C1955       C  0.29602550  0.35330185  0.78297253     0.25300
C1956       C  0.31583912  0.35250795  0.79950261    -0.41000
C1957       C  0.33908034  0.34030212  0.79409885     0.32200
C1958       C  0.34288361  0.32973339  0.77213011     0.14000
F1959       F  0.28147921  0.34570638  0.74433194    -0.13400
F1960       F  0.35859085  0.33985290  0.80975843    -0.13900
F1961       F  0.27370306  0.36568737  0.78776997    -0.16200
F1962       F  0.36607376  0.31931342  0.76685775    -0.14700
F1963       F  0.33376235  0.37127082  0.72330081    -0.14700
F1964       F  0.35205583  0.27183618  0.69551649    -0.16100
C1965       C  0.14381563  0.30981422  0.14850830     0.13900
C1966       C  0.15987659  0.31700785  0.12988942     0.00900
C1967       C  0.15944853  0.30226147  0.10946627     0.15900
C1968       C  0.14460181  0.27994160  0.10822394     0.25300
C1969       C  0.12974366  0.27190233  0.12731183    -0.41100
C1970       C  0.12876757  0.28749814  0.14719229     0.32300
C1971       C  0.17949903  0.33760936  0.13267051     0.01000
F1972       F  0.17472180  0.30852593  0.09119849    -0.13400
F1973       F  0.11462698  0.28026897  0.16590042    -0.13900
C1974       C  0.19827419  0.33530168  0.15008022     0.15900
C1975       C  0.21923339  0.35205485  0.15080589     0.25300
C1976       C  0.22207119  0.37151792  0.13405452    -0.41000
C1977       C  0.20251080  0.37485017  0.11741977     0.32200
C1978       C  0.18144977  0.35796504  0.11669043     0.14000
F1979       F  0.19729046  0.31566727  0.16551806    -0.13400
F1980       F  0.20461341  0.39328915  0.10089930    -0.13900
F1981       F  0.23734028  0.34859428  0.16749222    -0.16200
F1982       F  0.16342578  0.36092549  0.09986526    -0.14700
F1983       F  0.14346489  0.32391898  0.16830259    -0.14700
F1984       F  0.14523901  0.26575856  0.08846880    -0.16100
C1985       C  0.28832171  0.42117533  0.97219566     0.13900
C1986       C  0.28967762  0.39815515  0.98478904     0.00900
C1987       C  0.29202373  0.37485543  0.97270994     0.15900
C1988       C  0.29283986  0.37464256  0.94842059     0.25300
C1989       C  0.29091306  0.39768939  0.93588393    -0.41100
C1990       C  0.28863888  0.42092816  0.94798825     0.32300
C1991       C  0.28850411  0.39874942  0.01047277     0.01000
F1992       F  0.29287264  0.35228162  0.98439515    -0.13400
F1993       F  0.28738073  0.44353139  0.93637822    -0.13900
C1994       C  0.26809655  0.41137011  0.02171334     0.15900
C1995       C  0.26790623  0.41383934  0.04585410     0.25300
C1996       C  0.28768552  0.40304564  0.05916589    -0.41000
C1997       C  0.30765487  0.38968899  0.04808553     0.32200
C1998       C  0.30822813  0.38778735  0.02387859     0.14000
F1999       F  0.24823510  0.42115694  0.00926910    -0.13400
F2000       F  0.32712806  0.37936891  0.06067608    -0.13900
F2001       F  0.24810865  0.42626726  0.05628957    -0.16200
F2002       F  0.32847859  0.37602296  0.01351688    -0.14700
F2003       F  0.28713599  0.44402316  0.98339722    -0.14700
F2004       F  0.29463173  0.35186567  0.93715796    -0.16100
C2005       C  0.27763240  0.48594735  0.27326533     0.13900
C2006       C  0.26009590  0.49815585  0.25843100     0.00900
C2007       C  0.24692330  0.52000421  0.26622737     0.15900
C2008       C  0.25180577  0.52992478  0.28842689     0.25300
C2009       C  0.27037097  0.51840438  0.30278117    -0.41100
C2010       C  0.28279591  0.49601409  0.29520362     0.32300
C2011       C  0.25809398  0.48936961  0.23411961     0.01000
F2012       F  0.23007943  0.53218460  0.25203372    -0.13400
F2013       F  0.30050403  0.48424304  0.30884925    -0.13900
C2014       C  0.24760100  0.46520500  0.22899450     0.15900
C2015       C  0.25131569  0.45420715  0.20705725     0.25300
C2016       C  0.26596444  0.46710768  0.19024363    -0.41000
C2017       C  0.27493250  0.49198051  0.19487283     0.32200
C2018       C  0.27083985  0.50313784  0.21661256     0.14000
F2019       F  0.23540712  0.45156361  0.24578079    -0.13400
F2020       F  0.28923050  0.50470347  0.17883784    -0.13900
F2021       F  0.24290753  0.42998685  0.20305761    -0.16200
F2022       F  0.28139035  0.52637670  0.22127445    -0.14700
F2023       F  0.29090080  0.46507103  0.26592395    -0.14700
F2024       F  0.23972419  0.55170263  0.29524307    -0.16100
C2025       C  0.32787418  0.32317798  0.21761609     0.13900
C2026       C  0.33194283  0.33581013  0.23877927     0.00900
C2027       C  0.32686245  0.36210506  0.24048511     0.15900
C2028       C  0.31927064  0.37598380  0.22100845     0.25300
C2029       C  0.31670567  0.36379159  0.19927005    -0.41100
C2030       C  0.32018271  0.33700018  0.19799842     0.32300
C2031       C  0.34480504  0.32288918  0.25832954     0.01000
F2032       F  0.33109170  0.37476600  0.26072828    -0.13400
F2033       F  0.31738806  0.32426784  0.17760391    -0.13900
C2034       C  0.37066664  0.31570768  0.25609515     0.15900
C2035       C  0.38511470  0.30957569  0.27572718     0.25300
C2036       C  0.37389312  0.31059329  0.29799655    -0.41000
C2037       C  0.34730284  0.31557782  0.29988090     0.32200
C2038       C  0.33294998  0.32178829  0.28017531     0.14000
F2039       F  0.38246596  0.31650841  0.23506888    -0.13400
F2040       F  0.33537618  0.31586586  0.32085428    -0.13900
F2041       F  0.41033235  0.30361081  0.27291572    -0.16200
F2042       F  0.30775430  0.32806315  0.28253375    -0.14700
F2043       F  0.33232589  0.29764127  0.21577175    -0.14700
F2044       F  0.31579391  0.40162814  0.22334970    -0.16100
C2045       C  0.68411127  0.12450044  0.86448681     0.13900
C2046       C  0.68590611  0.14919152  0.85494485     0.00900
C2047       C  0.70947384  0.15741628  0.84570613     0.15900
C2048       C  0.73108266  0.14151038  0.84647002     0.25300
C2049       C  0.72964655  0.11686808  0.85659749    -0.41100
C2050       C  0.70569258  0.10842046  0.86521785     0.32300
C2051       C  0.66403093  0.16735074  0.85639901     0.01000
F2052       F  0.71189209  0.18143938  0.83691024    -0.13400
F2053       F  0.70324431  0.08495423  0.87511893    -0.13900
C2054       C  0.65622339  0.17668573  0.87815786     0.15900
C2055       C  0.63855713  0.19679190  0.87963811     0.25300
C2056       C  0.62808768  0.20765370  0.85943340    -0.41000
C2057       C  0.63463599  0.19732897  0.83770221     0.32200
C2058       C  0.65268509  0.17741871  0.83618072     0.14000
F2059       F  0.66713887  0.16758788  0.89791227    -0.13400
F2060       F  0.62516676  0.20787473  0.81793330    -0.13900
F2061       F  0.63264781  0.20664667  0.90079572    -0.16200
F2062       F  0.65997857  0.16872819  0.81496646    -0.14700
F2063       F  0.66149601  0.11615115  0.87351046    -0.14700
F2064       F  0.75355924  0.15066688  0.83776283    -0.16100
C2065       C  0.67145938  0.28362259  0.76438856     0.13900
C2066       C  0.68103865  0.30792203  0.75838355     0.00900
C2067       C  0.68045881  0.32774148  0.77485662     0.15900
C2068       C  0.66859843  0.32390425  0.79634125     0.25300
C2069       C  0.65755257  0.30010445  0.80178433    -0.41100
C2070       C  0.65995939  0.27965946  0.78611166     0.32300
C2071       C  0.68660995  0.31432444  0.73391206     0.01000
F2072       F  0.68907015  0.35151558  0.76923767    -0.13400
F2073       F  0.64889219  0.25669444  0.79088214    -0.13900
C2074       C  0.66589854  0.31717617  0.71851727     0.15900
C2075       C  0.66963216  0.32850133  0.69686222     0.25300
C2076       C  0.69416607  0.33691648  0.69012464    -0.41000
C2077       C  0.71527979  0.33247404  0.70477632     0.32200
C2078       C  0.71146143  0.32142210  0.72673038     0.14000
F2079       F  0.64163928  0.31107811  0.72529927    -0.13400
F2080       F  0.73904437  0.34096239  0.69874827    -0.13900
F2081       F  0.64894909  0.33290283  0.68303004    -0.16200
F2082       F  0.73164329  0.31905192  0.74149811    -0.14700
F2083       F  0.67150836  0.26437896  0.74854850    -0.14700
F2084       F  0.66614351  0.34396602  0.81118679    -0.16100
C2085       C  0.50302038  0.25312110  0.77559258     0.13900
C2086       C  0.51274200  0.25731392  0.75319121     0.00900
C2087       C  0.53929576  0.26102971  0.75016395     0.15900
C2088       C  0.55551490  0.26299707  0.76950093     0.25300
C2089       C  0.54539744  0.26098808  0.79211709    -0.41100
C2090       C  0.51918102  0.25480575  0.79489843     0.32300
C2091       C  0.49482353  0.26190756  0.73368806     0.01000
F2092       F  0.54918051  0.26472244  0.72859713    -0.13400
F2093       F  0.50859766  0.25269883  0.81637112    -0.13900
C2094       C  0.47849671  0.28328500  0.73445436     0.15900
C2095       C  0.46292937  0.28942828  0.71553124     0.25300
C2096       C  0.46339001  0.27431145  0.69525576    -0.41000
C2097       C  0.47914521  0.25223891  0.69490969     0.32200
C2098       C  0.49478868  0.24621479  0.71393985     0.14000
F2099       F  0.47847911  0.29895615  0.75326832    -0.13400
F2100       F  0.47991578  0.23669923  0.67602509    -0.13900
F2101       F  0.44810766  0.31076723  0.71691446    -0.16200
F2102       F  0.51008786  0.22518652  0.71301116    -0.14700
F2103       F  0.47748459  0.24902013  0.77884286    -0.14700
F2104       F  0.58085703  0.26806016  0.76614244    -0.16100
C2105       C  0.41371864  0.33496955  0.86790335     0.13900
C2106       C  0.43506916  0.35139610  0.86914536     0.00900
C2107       C  0.43085899  0.37793453  0.87094303     0.15900
C2108       C  0.40579730  0.38788797  0.87108712     0.25300
C2109       C  0.38429543  0.37148509  0.86934754    -0.41100
C2110       C  0.38866727  0.34481606  0.86806866     0.32300
C2111       C  0.46163424  0.34087584  0.86735143     0.01000
F2112       F  0.45110476  0.39429144  0.87235094    -0.13400
F2113       F  0.36876792  0.32814388  0.86588912    -0.13900
C2114       C  0.47765167  0.34823972  0.84890752     0.15900
C2115       C  0.50221694  0.33766414  0.84644191     0.25300
C2116       C  0.51153278  0.31925467  0.86242380    -0.41000
C2117       C  0.49545249  0.31210214  0.88106705     0.32200
C2118       C  0.47079260  0.32278589  0.88345477     0.14000
F2119       F  0.46915065  0.36513377  0.83270644    -0.13400
F2120       F  0.50341244  0.29463251  0.89695554    -0.13900
F2121       F  0.51656377  0.34520745  0.82795157    -0.16200
F2122       F  0.45581417  0.31551694  0.90160385    -0.14700
F2123       F  0.41714404  0.30934537  0.86537735    -0.14700
F2124       F  0.40269044  0.41365280  0.87255641    -0.16100
C2125       C  0.69781260  0.15942430  0.12173473     0.13900
C2126       C  0.67992192  0.15373697  0.13916280     0.00900
C2127       C  0.68444786  0.13288337  0.15404919     0.15900
C2128       C  0.70679056  0.11793335  0.15146321     0.25300
C2129       C  0.72505261  0.12399250  0.13416508    -0.41100
C2130       C  0.72003520  0.14482028  0.11921433     0.32300
C2131       C  0.65758108  0.17100650  0.14198194     0.01000
F2132       F  0.66741619  0.12721472  0.17116182    -0.13400
F2133       F  0.73670104  0.15128486  0.10202072    -0.13900
C2134       C  0.63810771  0.17133338  0.12506333     0.15900
C2135       C  0.62116856  0.19213559  0.12350136     0.25300
C2136       C  0.62382903  0.21312208  0.13860697    -0.41000
C2137       C  0.64202840  0.21175667  0.15669646     0.32200
C2138       C  0.65868590  0.19080676  0.15841081     0.14000
F2139       F  0.63683095  0.15241441  0.10894583    -0.13400
F2140       F  0.64458447  0.23137208  0.17201592    -0.13900
F2141       F  0.60385129  0.19282077  0.10588976    -0.16200
F2142       F  0.67735486  0.19091978  0.17488034    -0.14700
F2143       F  0.69405090  0.17978803  0.10745541    -0.14700
F2144       F  0.71091194  0.09816070  0.16630180    -0.16100
C2145       C  0.47714786  0.35975004  0.10907075     0.13900
C2146       C  0.45489784  0.34585053  0.11477856     0.00900
C2147       C  0.45704301  0.31973990  0.12032215     0.15900
C2148       C  0.48112870  0.30786583  0.12085722     0.25300
C2149       C  0.50361252  0.32196809  0.11596869    -0.41100
C2150       C  0.50128933  0.34796041  0.10969814     0.32300
C2151       C  0.42967081  0.35885311  0.11661080     0.01000
F2152       F  0.43592571  0.30611034  0.12666972    -0.13400
F2153       F  0.52246882  0.36220913  0.10482508    -0.13900
C2154       C  0.40869162  0.35060980  0.10322744     0.15900
C2155       C  0.38431124  0.36133418  0.10652938     0.25300
C2156       C  0.38040090  0.38050123  0.12343477    -0.41000
C2157       C  0.40180786  0.38936848  0.13620408     0.32200
C2158       C  0.42611258  0.37859116  0.13283487     0.14000
F2159       F  0.41178108  0.33184796  0.08715720    -0.13400
F2160       F  0.39924492  0.40802823  0.15245522    -0.13900
F2161       F  0.36445590  0.35227599  0.09362213    -0.16200
F2162       F  0.44600476  0.38667660  0.14623422    -0.14700
F2163       F  0.47552353  0.38494156  0.10341305    -0.14700
F2164       F  0.48251834  0.28308398  0.12789942    -0.16100
C2165       C  0.57971138  0.25148181  0.02071321     0.13900
C2166       C  0.59345142  0.26987593  0.00779250     0.00900
C2167       C  0.60651016  0.28947210  0.01980901     0.15900
C2168       C  0.60604754  0.29054206  0.04410753     0.25300
C2169       C  0.59200925  0.27242574  0.05694524    -0.41100
C2170       C  0.57872187  0.25295501  0.04502333     0.32300
C2171       C  0.59395631  0.26912444  0.98187065     0.01000
F2172       F  0.61909863  0.30814310  0.00795655    -0.13400
F2173       F  0.56519398  0.23500785  0.05696651    -0.13900
C2174       C  0.57097410  0.26837318  0.96892485     0.15900
C2175       C  0.57155571  0.26965721  0.94459155     0.25300
C2176       C  0.59506115  0.27237250  0.93274641    -0.41000
C2177       C  0.61804511  0.27225329  0.94560753     0.32200
C2178       C  0.61750891  0.27034619  0.96985506     0.14000
F2179       F  0.54785771  0.26739088  0.97983989    -0.13400
F2180       F  0.64113662  0.27340005  0.93464186    -0.13900
F2181       F  0.54904888  0.26925411  0.93266602    -0.16200
F2182       F  0.64009838  0.26951393  0.98163457    -0.14700
F2183       F  0.56758562  0.23181737  0.00984290    -0.14700
F2184       F  0.61843055  0.30998946  0.05505885    -0.16100
C2185       C  0.63067275  0.31958483  0.23824749     0.13900
C2186       C  0.65758101  0.31836087  0.23871471     0.00900
C2187       C  0.67089553  0.31022757  0.21881935     0.15900
C2188       C  0.65751274  0.30486852  0.19826500     0.25300
C2189       C  0.63056951  0.30773351  0.19732931    -0.41100
C2190       C  0.61728078  0.31427332  0.21789421     0.32300
C2191       C  0.67129550  0.32919532  0.25891203     0.01000
F2192       F  0.69691394  0.30826061  0.21913965    -0.13400
F2193       F  0.59130383  0.31688774  0.21823845    -0.13900
C2194       C  0.66671704  0.31968323  0.28135167     0.15900
C2195       C  0.67448437  0.33369494  0.30082000     0.25300
C2196       C  0.68679788  0.35757227  0.29808718    -0.41000
C2197       C  0.69294852  0.36610023  0.27557387     0.32200
C2198       C  0.68531005  0.35198867  0.25617487     0.14000
F2199       F  0.65336851  0.29756308  0.28437500    -0.13400
F2200       F  0.70548081  0.38863347  0.27226270    -0.13900
F2201       F  0.66820645  0.32477910  0.32223870    -0.16200
F2202       F  0.68979971  0.36165764  0.23466240    -0.14700
F2203       F  0.61735412  0.32774366  0.25714145    -0.14700
F2204       F  0.67102785  0.29759560  0.17921137    -0.16100
C2205       C  0.52874425  0.23795157  0.22591908     0.13900
C2206       C  0.50798555  0.25273561  0.23378257     0.00900
C2207       C  0.49704295  0.27119784  0.21917728     0.15900
C2208       C  0.50766478  0.27598724  0.19743094     0.25300
C2209       C  0.52938188  0.26227201  0.18990825    -0.41100
C2210       C  0.53929718  0.24252940  0.20390570     0.32300
C2211       C  0.49996588  0.25227264  0.25821374     0.01000
F2212       F  0.47716376  0.28586356  0.22672613    -0.13400
F2213       F  0.56042499  0.22923091  0.19714144    -0.13900
C2214       C  0.51167897  0.26943442  0.27366139     0.15900
C2215       C  0.50040779  0.27448392  0.29510649     0.25300
C2216       C  0.47739000  0.26223975  0.30143947    -0.41000
C2217       C  0.46670775  0.24359105  0.28673388     0.32200
C2218       C  0.47785161  0.23881943  0.26503792     0.14000
F2219       F  0.53291386  0.28280119  0.26716366    -0.13400
F2220       F  0.44433246  0.23175426  0.29246271    -0.13900
F2221       F  0.51130228  0.29224735  0.30926397    -0.16200
F2222       F  0.46614444  0.22248534  0.25006446    -0.14700
F2223       F  0.53965962  0.22025536  0.24007777    -0.14700
F2224       F  0.49745926  0.29492152  0.18414473    -0.16100
C2225       C  0.80610504  0.65120339  0.87877621     0.13900
C2226       C  0.82440955  0.64690184  0.86131933     0.00900
C2227       C  0.82080208  0.62610688  0.84605545     0.15900
C2228       C  0.79879199  0.61039911  0.84784576     0.25300
C2229       C  0.77979481  0.61560125  0.86465226    -0.41100
C2230       C  0.78414504  0.63583960  0.88043908     0.32300
C2231       C  0.84585701  0.66562493  0.85828103     0.01000
F2232       F  0.83836600  0.62132587  0.82917699    -0.13400
F2233       F  0.76683411  0.64112679  0.89743879    -0.13900
C2234       C  0.86466651  0.66878058  0.87562699     0.15900
C2235       C  0.88208375  0.68939450  0.87474027     0.25300
C2236       C  0.88067292  0.70757320  0.85671853    -0.41000
C2237       C  0.86243964  0.70379564  0.83892664     0.32200
C2238       C  0.84539753  0.68294530  0.83960998     0.14000
F2239       F  0.86534947  0.65254253  0.89402504    -0.13400
F2240       F  0.86046534  0.72089402  0.82124867    -0.13900
F2241       F  0.89891532  0.69270830  0.89249303    -0.16200
F2242       F  0.82722435  0.68066947  0.82282231    -0.14700
F2243       F  0.80890224  0.67118588  0.89365246    -0.14700
F2244       F  0.79551402  0.59095854  0.83249035    -0.16100
C2245       C  0.70321905  0.64835989  0.76608599     0.13900
C2246       C  0.67854322  0.65166540  0.75677903     0.00900
C2247       C  0.65679012  0.64667039  0.77041368     0.15900
C2248       C  0.65958542  0.63682554  0.79266620     0.25300
C2249       C  0.68420576  0.63193354  0.80159016    -0.41100
C2250       C  0.70607532  0.63867714  0.78860754     0.32300
C2251       C  0.67468913  0.65668179  0.73203091     0.01000
F2252       F  0.63280355  0.64966558  0.76149118    -0.13400
F2253       F  0.73000429  0.63384671  0.79691337    -0.13900
C2254       C  0.66964241  0.63580562  0.71739563     0.15900
C2255       C  0.65811471  0.63979057  0.69590838     0.25300
C2256       C  0.65188184  0.66469701  0.68879477    -0.41000
C2257       C  0.65913978  0.68576296  0.70243619     0.32200
C2258       C  0.67029655  0.68172571  0.72419885     0.14000
F2259       F  0.67362209  0.61146670  0.72490339    -0.13400
F2260       F  0.65299788  0.70994115  0.69577248    -0.13900
F2261       F  0.65149327  0.61928688  0.68266970    -0.16200
F2262       F  0.67466478  0.70197355  0.73843885    -0.14700
F2263       F  0.72433997  0.65297025  0.75288135    -0.14700
F2264       F  0.63820353  0.63083637  0.80511078    -0.16100
C2265       C  0.72172982  0.51711626  0.75803392     0.13900
C2266       C  0.73555312  0.49415629  0.76071167     0.00900
C2267       C  0.74469734  0.48761696  0.78294119     0.15900
C2268       C  0.73929285  0.50322771  0.80219567     0.25300
C2269       C  0.72463709  0.52577494  0.79961656    -0.41100
C2270       C  0.71637733  0.53272979  0.77718297     0.32300
C2271       C  0.73799986  0.47618099  0.74067427     0.01000
F2272       F  0.75837152  0.46576091  0.78612036    -0.13400
F2273       F  0.70246906  0.55440257  0.77376787    -0.13900
C2274       C  0.74783985  0.48460404  0.71920142     0.15900
C2275       C  0.74528537  0.46943517  0.69919723     0.25300
C2276       C  0.73290752  0.44542010  0.70030941    -0.41000
C2277       C  0.72526428  0.43610243  0.72225305     0.32200
C2278       C  0.72763542  0.45134799  0.74213418     0.14000
F2279       F  0.75896263  0.50805993  0.71741803    -0.13400
F2280       F  0.71432974  0.41258711  0.72438207    -0.13900
F2281       F  0.75334384  0.47909078  0.67854840    -0.16200
F2282       F  0.71802166  0.44246722  0.76252647    -0.14700
F2283       F  0.71208746  0.52378785  0.73698453    -0.14700
F2284       F  0.74719447  0.49546054  0.82352794    -0.16100
C2285       C  0.63492493  0.46652181  0.87874268     0.13900
C2286       C  0.65166318  0.44544718  0.88014534     0.00900
C2287       C  0.67824069  0.44997348  0.88232952     0.15900
C2288       C  0.68798596  0.47504562  0.88152776     0.25300
C2289       C  0.67133448  0.49596487  0.87820735    -0.41100
C2290       C  0.64464345  0.49148372  0.87760604     0.32300
C2291       C  0.64156161  0.41901820  0.87671967     0.01000
F2292       F  0.69494116  0.43004812  0.88342926    -0.13400
F2293       F  0.62795108  0.51126082  0.87500173    -0.13900
C2294       C  0.62772558  0.41314948  0.85641649     0.15900
C2295       C  0.61840676  0.38840934  0.85256610     0.25300
C2296       C  0.62305736  0.36878437  0.86873705    -0.41000
C2297       C  0.63712762  0.37446613  0.88896511     0.32200
C2298       C  0.64612334  0.39944810  0.89302169     0.14000
F2299       F  0.62404329  0.43123508  0.83980222    -0.13400
F2300       F  0.64190129  0.35590911  0.90490249    -0.13900
F2301       F  0.60594496  0.38334219  0.83236442    -0.16200
F2302       F  0.65909602  0.40457494  0.91292885    -0.14700
F2303       F  0.60911525  0.46282194  0.87748321    -0.14700
F2304       F  0.71383654  0.47862502  0.88191635    -0.16100
C2305       C  0.80668192  0.65300261  0.15862026     0.13900
C2306       C  0.82671718  0.65215975  0.14234740     0.00900
C2307       C  0.82731361  0.63224140  0.12596646     0.15900
C2308       C  0.80715574  0.61442928  0.12478625     0.25300
C2309       C  0.78592480  0.61654010  0.13983755    -0.41100
C2310       C  0.78644385  0.63538122  0.15739737     0.32300
C2311       C  0.84336599  0.67487392  0.13918999     0.01000
F2312       F  0.84652682  0.63121382  0.11003610    -0.13400
F2313       F  0.76671244  0.63754784  0.17272978    -0.13900
C2314       C  0.86556051  0.67895905  0.15257480     0.15900
C2315       C  0.88026289  0.70134227  0.14950049     0.25300
C2316       C  0.87272353  0.72002825  0.13313048    -0.41000
C2317       C  0.85042503  0.71554612  0.11977907     0.32200
C2318       C  0.83601223  0.69328408  0.12282215     0.14000
F2319       F  0.87279561  0.66145039  0.16871585    -0.13400
F2320       F  0.84238314  0.73270727  0.10362857    -0.13900
F2321       F  0.90136095  0.70501326  0.16296557    -0.16200
F2322       F  0.81438766  0.68984224  0.10998372    -0.14700
F2323       F  0.80572458  0.67212662  0.17457058    -0.14700
F2324       F  0.80738820  0.59658695  0.10765330    -0.16100
C2325       C  0.68608322  0.44425984  0.11781247     0.13900
C2326       C  0.65997042  0.44219367  0.11175305     0.00900
C2327       C  0.64639511  0.46439470  0.10555471     0.15900
C2328       C  0.65815854  0.48843118  0.10686761     0.25300
C2329       C  0.68380994  0.49077110  0.11440459    -0.41100
C2330       C  0.69796954  0.46834906  0.11901619     0.32300
C2331       C  0.64619479  0.41739020  0.11389870     0.01000
F2332       F  0.62135585  0.46284348  0.09904851    -0.13400
F2333       F  0.72266619  0.46980888  0.12652426    -0.13900
C2334       C  0.62575417  0.41501751  0.12969258     0.15900
C2335       C  0.61292977  0.39167470  0.13241796     0.25300
C2336       C  0.62037056  0.36993785  0.11946437    -0.41000
C2337       C  0.64066381  0.37254169  0.10332174     0.32200
C2338       C  0.65346839  0.39601867  0.10066069     0.14000
F2339       F  0.61874126  0.43520137  0.14314779    -0.13400
F2340       F  0.64862319  0.35227249  0.09044602    -0.13900
F2341       F  0.59360140  0.39036926  0.14823719    -0.16200
F2342       F  0.67304670  0.39788683  0.08515964    -0.14700
F2343       F  0.69956370  0.42314179  0.12417756    -0.14700
F2344       F  0.64410277  0.50955484  0.10161496    -0.16100
C2345       C  0.70057981  0.59809370  0.02508647     0.13900
C2346       C  0.71935217  0.58652603  0.01100126     0.00900
C2347       C  0.74047608  0.57434578  0.02150833     0.15900
C2348       C  0.74227143  0.57286327  0.04566855     0.25300
C2349       C  0.72336193  0.58415243  0.05969823    -0.41100
C2350       C  0.70271709  0.59713215  0.04925866     0.32300
C2351       C  0.71651531  0.58627402  0.98542480     0.01000
F2352       F  0.75940765  0.56390953  0.00832489    -0.13400
F2353       F  0.68391043  0.60773797  0.06246699    -0.13900
C2354       C  0.71342581  0.60922628  0.97295836     0.15900
C2355       C  0.71110816  0.60877851  0.94877742     0.25300
C2356       C  0.71231577  0.58540658  0.93667830    -0.41000
C2357       C  0.71517520  0.56247940  0.94915192     0.32200
C2358       C  0.71698769  0.56288920  0.97332343     0.14000
F2359       F  0.71338153  0.63212528  0.98412885    -0.13400
F2360       F  0.71563488  0.53959604  0.93796183    -0.13900
F2361       F  0.70865163  0.63126729  0.93713586    -0.16200
F2362       F  0.71883356  0.54036070  0.98498026    -0.14700
F2363       F  0.67963917  0.60940595  0.01546476    -0.14700
F2364       F  0.76262755  0.56064195  0.05538533    -0.16100
C2365       C  0.68442558  0.65440384  0.22161062     0.13900
C2366       C  0.67674652  0.64044864  0.24122403     0.00900
C2367       C  0.67853289  0.61365538  0.24111057     0.15900
C2368       C  0.68595107  0.60082556  0.22103956     0.25300
C2369       C  0.69130707  0.61463562  0.20053703    -0.41100
C2370       C  0.69174674  0.64162178  0.20137985     0.32300
C2371       C  0.66371615  0.65322254  0.26068736     0.01000
F2372       F  0.67121594  0.59975322  0.25993060    -0.13400
F2373       F  0.69830145  0.65571162  0.18246280    -0.13900
C2374       C  0.64010936  0.66554103  0.25683527     0.15900
C2375       C  0.62514408  0.67358571  0.27555533     0.25300
C2376       C  0.63360691  0.66938772  0.29843116    -0.41000
C2377       C  0.65788445  0.65808993  0.30216299     0.32200
C2378       C  0.67279665  0.65012171  0.28340736     0.14000
F2379       F  0.63075624  0.66823690  0.23496099    -0.13400
F2380       F  0.66654444  0.65315096  0.32394881    -0.13900
F2381       F  0.60202727  0.68468190  0.27126522    -0.16200
F2382       F  0.69559231  0.63826480  0.28743359    -0.14700
F2383       F  0.68378875  0.68039670  0.22180067    -0.14700
F2384       F  0.68641894  0.57481759  0.22148802    -0.16100
C2385       C  0.76730533  0.47028059  0.26799131     0.13900
C2386       C  0.75154905  0.48995194  0.25932584     0.00900
C2387       C  0.73042839  0.49819209  0.27248702     0.15900
C2388       C  0.72392246  0.48570569  0.29307766     0.25300
C2389       C  0.73852740  0.46477922  0.30103193    -0.41100
C2390       C  0.76101011  0.45793634  0.28892561     0.32300
C2391       C  0.75406183  0.49927127  0.23517395     0.01000
F2392       F  0.71497910  0.51721374  0.26450583    -0.13400
F2393       F  0.77585679  0.43826512  0.29647894    -0.13900
C2394       C  0.74528168  0.48358398  0.21701343     0.15900
C2395       C  0.74045925  0.49400278  0.19508552     0.25300
C2396       C  0.74496194  0.52009160  0.19086118    -0.41000
C2397       C  0.75576955  0.53534334  0.20842060     0.32200
C2398       C  0.76002536  0.52505326  0.23057395     0.14000
F2399       F  0.73909025  0.45872489  0.22113953    -0.13400
F2400       F  0.75985525  0.56071524  0.20474522    -0.13900
F2401       F  0.72993370  0.47899453  0.17834883    -0.16200
F2402       F  0.76822345  0.54061533  0.24793942    -0.14700
F2403       F  0.78808467  0.46236768  0.25567840    -0.14700
F2404       F  0.70276195  0.49360095  0.30490314    -0.16100
C2405       C  0.35927624  0.81062044  0.83790226     0.13900
C2406       C  0.34369866  0.81865889  0.85655489     0.00900
C2407       C  0.34471276  0.80494432  0.87755520     0.15900
C2408       C  0.35989801  0.78295082  0.87949644     0.25300
C2409       C  0.37456873  0.77425253  0.86055999    -0.41100
C2410       C  0.37472818  0.78866385  0.83994260     0.32300
C2411       C  0.32436694  0.83947165  0.85363677     0.01000
F2412       F  0.32974974  0.81193916  0.89580405    -0.13400
F2413       F  0.38846669  0.78054574  0.82130252    -0.13900
C2414       C  0.30457645  0.83676091  0.83721085     0.15900
C2415       C  0.28386165  0.85386547  0.83688078     0.25300
C2416       C  0.28237671  0.87409688  0.85303674    -0.41000
C2417       C  0.30307102  0.87782833  0.86846108     0.32200
C2418       C  0.32379740  0.86059899  0.86881244     0.14000
F2419       F  0.30438774  0.81648622  0.82245331    -0.13400
F2420       F  0.30246686  0.89708005  0.88428794    -0.13900
F2421       F  0.26473683  0.85004059  0.82121508    -0.16200
F2422       F  0.34287562  0.86397574  0.88459830    -0.14700
F2423       F  0.35889108  0.82359189  0.81748019    -0.14700
F2424       F  0.35976131  0.76968660  0.89978753    -0.16100
C2425       C  0.50072885  0.73230077  0.77782077     0.13900
C2426       C  0.49404911  0.72317140  0.75568907     0.00900
C2427       C  0.46935064  0.71295347  0.75222671     0.15900
C2428       C  0.45204277  0.71077807  0.77075166     0.25300
C2429       C  0.45910215  0.71868159  0.79330719    -0.41100
C2430       C  0.48343897  0.73020604  0.79642394     0.32300
C2431       C  0.51335683  0.72212577  0.73665857     0.01000
F2432       F  0.46250919  0.70357469  0.73112416    -0.13400
F2433       F  0.49122587  0.73815903  0.81773345    -0.13900
C2434       C  0.53543241  0.70688092  0.73907278     0.15900
C2435       C  0.55176041  0.70264837  0.72013452     0.25300
C2436       C  0.54626733  0.71346057  0.69821559    -0.41000
C2437       C  0.52509418  0.73020831  0.69631561     0.32200
C2438       C  0.50876260  0.73436787  0.71533004     0.14000
F2439       F  0.54033902  0.69471021  0.75943198    -0.13400
F2440       F  0.51921345  0.74144547  0.67573677    -0.13900
F2441       F  0.57239016  0.68706710  0.72310398    -0.16200
F2442       F  0.48790430  0.74970339  0.71271656    -0.14700
F2443       F  0.52436294  0.74254612  0.78157311    -0.14700
F2444       F  0.42875085  0.69990274  0.76669876    -0.16100
C2445       C  0.32322931  0.65611833  0.77341149     0.13900
C2446       C  0.32317719  0.67639149  0.75735778     0.00900
C2447       C  0.33275368  0.70046284  0.76415520     0.15900
C2448       C  0.34399329  0.70358356  0.78612745     0.25300
C2449       C  0.34612501  0.68254313  0.80122323    -0.41100
C2450       C  0.33485466  0.65910821  0.79506403     0.32300
C2451       C  0.31805710  0.67038402  0.73267502     0.01000
F2452       F  0.33275950  0.72035410  0.74897055    -0.13400
F2453       F  0.33673682  0.63857002  0.80943041    -0.13900
C2454       C  0.29417092  0.66025414  0.72580478     0.15900
C2455       C  0.29184345  0.64729845  0.70459852     0.25300
C2456       C  0.31347549  0.64405635  0.69030527    -0.41000
C2457       C  0.33672345  0.65596410  0.69626319     0.32200
C2458       C  0.33893354  0.66931605  0.71718360     0.14000
F2459       F  0.27368017  0.66133720  0.74037843    -0.13400
F2460       F  0.35765535  0.65349037  0.68234315    -0.13900
F2461       F  0.26915054  0.63600835  0.69899829    -0.16200
F2462       F  0.36216344  0.67907903  0.72331428    -0.14700
F2463       F  0.31435159  0.63262628  0.76721361    -0.14700
F2464       F  0.35492725  0.72637169  0.79176485    -0.16100
C2465       C  0.57097208  0.60467733  0.87362254     0.13900
C2466       C  0.56684401  0.63131774  0.87346394     0.00900
C2467       C  0.58827587  0.64771869  0.87402100     0.15900
C2468       C  0.61327165  0.63774360  0.87383388     0.25300
C2469       C  0.61748876  0.61102699  0.87262265    -0.41100
C2470       C  0.59594343  0.59463527  0.87309790     0.32300
C2471       C  0.54033907  0.64187483  0.87108356     0.01000
F2472       F  0.58508131  0.67352023  0.87343258    -0.13400
F2473       F  0.59890105  0.56881639  0.87250232    -0.13900
C2474       C  0.53074502  0.66032563  0.88666210     0.15900
C2475       C  0.50604167  0.67068121  0.88370116     0.25300
C2476       C  0.49026351  0.66262945  0.86517091    -0.41000
C2477       C  0.49992827  0.64381764  0.84981448     0.32200
C2478       C  0.52465654  0.63387106  0.85261187     0.14000
F2479       F  0.54526447  0.66826394  0.90486696    -0.13400
F2480       F  0.48573997  0.63520492  0.83162810    -0.13900
F2481       F  0.49775549  0.68873699  0.89890713    -0.16200
F2482       F  0.53361355  0.61691252  0.83666861    -0.14700
F2483       F  0.55070017  0.58827876  0.87385364    -0.14700
F2484       F  0.63327887  0.65447091  0.87375382    -0.16100
C2485       C  0.35555600  0.58274879  0.89452552     0.13900
C2486       C  0.36287663  0.56219317  0.88016140     0.00900
C2487       C  0.37969016  0.56697236  0.86149844     0.15900
C2488       C  0.38850674  0.59175964  0.85694660     0.25300
C2489       C  0.38033840  0.61251206  0.87067956    -0.41100
C2490       C  0.36404976  0.60771952  0.88972132     0.32300
C2491       C  0.35167788  0.53613478  0.88320609     0.01000
F2492       F  0.38656302  0.54780061  0.84683087    -0.13400
F2493       F  0.35643623  0.62719186  0.90373861    -0.13900
C2494       C  0.32484647  0.53254631  0.88254260     0.15900
C2495       C  0.31440224  0.50785268  0.88088999     0.25300
C2496       C  0.33062682  0.48639135  0.87933263    -0.41000
C2497       C  0.35730445  0.48983172  0.88169601     0.32200
C2498       C  0.36771489  0.51444758  0.88390031     0.14000
F2499       F  0.30879834  0.55300857  0.88154533    -0.13400
F2500       F  0.37336272  0.46935538  0.88107457    -0.13900
F2501       F  0.28855591  0.50514836  0.87866420    -0.16200
F2502       F  0.39360039  0.51719047  0.88568914    -0.14700
F2503       F  0.34007363  0.57865841  0.91314238    -0.14700
F2504       F  0.40393557  0.59560176  0.83823289    -0.16100
C2505       C  0.36836042  0.80975462  0.11921443     0.13900
C2506       C  0.34900778  0.81194373  0.13615189     0.00900
C2507       C  0.34792684  0.79377862  0.15413633     0.15900
C2508       C  0.36493265  0.77293977  0.15436187     0.25300
C2509       C  0.38346517  0.76998769  0.13666602    -0.41100
C2510       C  0.38552491  0.78909298  0.11952902     0.32300
C2511       C  0.32788169  0.83080054  0.13304664     0.01000
F2512       F  0.32925558  0.79522810  0.17056966    -0.13400
F2513       F  0.40277715  0.78673818  0.10196803    -0.13900
C2514       C  0.31158214  0.82840922  0.11377459     0.15900
C2515       C  0.29064836  0.84479900  0.11096634     0.25300
C2516       C  0.28523980  0.86397494  0.12751397    -0.41000
C2517       C  0.30207814  0.86702474  0.14645711     0.32200
C2518       C  0.32315419  0.85039395  0.14929282     0.14000
F2519       F  0.31531866  0.80936154  0.09807461    -0.13400
F2520       F  0.29744840  0.88519367  0.16277408    -0.13900
F2521       F  0.27529435  0.84150919  0.09212452    -0.16200
F2522       F  0.33871343  0.85314535  0.16803386    -0.14700
F2523       F  0.36973266  0.82698554  0.10160390    -0.14700
F2524       F  0.36262481  0.75511293  0.17141762    -0.16100
C2525       C  0.53260001  0.62530011  0.10603956     0.13900
C2526       C  0.55512150  0.63889413  0.11153100     0.00900
C2527       C  0.55329690  0.66530889  0.11620868     0.15900
C2528       C  0.52928995  0.67750014  0.11684080     0.25300
C2529       C  0.50654220  0.66342243  0.11314595    -0.41100
C2530       C  0.50859033  0.63738996  0.10685111     0.32300
C2531       C  0.58021552  0.62533767  0.11382045     0.01000
F2532       F  0.57463837  0.67901994  0.12168540    -0.13400
F2533       F  0.48722861  0.62333849  0.10217587    -0.13900
C2534       C  0.60191746  0.63374736  0.10146899     0.15900
C2535       C  0.62600304  0.62249909  0.10519383     0.25300
C2536       C  0.62902719  0.60233988  0.12135178    -0.41000
C2537       C  0.60696407  0.59328193  0.13305496     0.32200
C2538       C  0.58290903  0.60470522  0.12936943     0.14000
F2539       F  0.59985223  0.65314501  0.08588160    -0.13400
F2540       F  0.60864863  0.57383667  0.14863336    -0.13900
F2541       F  0.64647147  0.63204902  0.09339670    -0.16200
F2542       F  0.56239901  0.59629349  0.14183053    -0.14700
F2543       F  0.53379077  0.60007563  0.10042267    -0.14700
F2544       F  0.52829052  0.70265194  0.12273812    -0.16100
C2545       C  0.39593468  0.56930878  0.10904660     0.13900
C2546       C  0.36905217  0.56606568  0.11022926     0.00900
C2547       C  0.35334738  0.58783682  0.11245433     0.15900
C2548       C  0.36430976  0.61218526  0.11453055     0.25300
C2549       C  0.39115971  0.61515292  0.11494742    -0.41100
C2550       C  0.40690947  0.59362505  0.11177255     0.32300
C2551       C  0.35764561  0.54004691  0.11234638     0.01000
F2552       F  0.32745968  0.58537411  0.11448810    -0.13400
F2553       F  0.43290101  0.59609299  0.11185514    -0.13900
C2554       C  0.36623684  0.52371032  0.13007978     0.15900
C2555       C  0.35459067  0.49999495  0.13366972     0.25300
C2556       C  0.33371266  0.49204678  0.11982939    -0.41000
C2557       C  0.32497317  0.50834330  0.10206599     0.32200
C2558       C  0.33702226  0.53207619  0.09820635     0.14000
F2559       F  0.38519992  0.53124073  0.14478513    -0.13400
F2560       F  0.30498729  0.50123621  0.08835798    -0.13900
F2561       F  0.36301409  0.48535295  0.15161273    -0.16200
F2562       F  0.32855630  0.54729130  0.08069864    -0.14700
F2563       F  0.41159044  0.54875875  0.10615089    -0.14700
F2564       F  0.34869273  0.63262006  0.11819342    -0.16100
C2565       C  0.42880348  0.71914641  0.96921173     0.13900
C2566       C  0.40782903  0.71109844  0.98282104     0.00900
C2567       C  0.38560379  0.70202824  0.97159730     0.15900
C2568       C  0.38464440  0.70041904  0.94729706     0.25300
C2569       C  0.40596842  0.70779106  0.93365469    -0.41100
C2570       C  0.42794989  0.71743417  0.94496772     0.32300
C2571       C  0.40981443  0.71097675  0.00863970     0.01000
F2572       F  0.36502187  0.69403683  0.98418358    -0.13400
F2573       F  0.44897542  0.72471049  0.93263630    -0.13900
C2574       C  0.39158644  0.72364996  0.02262092     0.15900
C2575       C  0.39374126  0.72317250  0.04692247     0.25300
C2576       C  0.41438818  0.71038683  0.05762377    -0.41000
C2577       C  0.43265823  0.69793138  0.04363476     0.32200
C2578       C  0.43023482  0.69797593  0.01946475     0.14000
F2579       F  0.37202604  0.73695769  0.01274823    -0.13400
F2580       F  0.45249805  0.68494375  0.05342115    -0.13900
F2581       F  0.37609724  0.73583904  0.05995916    -0.16200
F2582       F  0.44759635  0.68473598  0.00659840    -0.14700
F2583       F  0.45025700  0.72872589  0.97945817    -0.14700
F2584       F  0.36269671  0.69184372  0.93717015    -0.16100
C2585       C  0.49245729  0.71673800  0.27539106     0.13900
C2586       C  0.50480200  0.73291588  0.25940586     0.00900
C2587       C  0.52734093  0.74588181  0.26603731     0.15900
C2588       C  0.53840394  0.74126010  0.28781577     0.25300
C2589       C  0.52724687  0.72325859  0.30286002    -0.41100
C2590       C  0.50367038  0.71186341  0.29693125     0.32300
C2591       C  0.49638035  0.73264040  0.23492698     0.01000
F2592       F  0.53941580  0.76172984  0.25085472    -0.13400
F2593       F  0.49231217  0.69479424  0.31150929    -0.13900
C2594       C  0.47189316  0.74159265  0.22862519     0.15900
C2595       C  0.46230411  0.73693831  0.20630225     0.25300
C2596       C  0.47688599  0.72277691  0.19029069    -0.41000
C2597       C  0.50175086  0.71474076  0.19629559     0.32200
C2598       C  0.51152837  0.71983919  0.21839436     0.14000
F2599       F  0.45682661  0.75363102  0.24447127    -0.13400
F2600       F  0.51612832  0.70102243  0.18104368    -0.13900
F2601       F  0.43800646  0.74436801  0.20096539    -0.16200
F2602       F  0.53503574  0.71057244  0.22425911    -0.14700
F2603       F  0.47075411  0.70389159  0.26933794    -0.14700
F2604       F  0.56115218  0.75249149  0.29329517    -0.16100
C2605       C  0.34149061  0.65107082  0.21563882     0.13900
C2606       C  0.35396311  0.65223761  0.23724488     0.00900
C2607       C  0.37886223  0.66256800  0.23849490     0.15900
C2608       C  0.39149519  0.67066255  0.21834427     0.25300
C2609       C  0.37945347  0.66850150  0.19649168    -0.41100
C2610       C  0.35407265  0.65912518  0.19544563     0.32300
C2611       C  0.34221337  0.64020781  0.25799804     0.01000
F2612       F  0.39151871  0.66350823  0.25909304    -0.13400
F2613       F  0.34186293  0.65639285  0.17476458    -0.13900
C2614       C  0.33667115  0.61392242  0.25774751     0.15900
C2615       C  0.32779170  0.60166964  0.27771261     0.25300
C2616       C  0.32451654  0.61539963  0.29865028    -0.41000
C2617       C  0.32913628  0.64202321  0.29860761     0.32200
C2618       C  0.33797015  0.65427373  0.27844482     0.14000
F2619       F  0.34104068  0.59975819  0.23836665    -0.13400
F2620       F  0.32596568  0.65611954  0.31819723    -0.13900
F2621       F  0.32309418  0.57610568  0.27652661    -0.16200
F2622       F  0.34275702  0.67982958  0.27895274    -0.14700
F2623       F  0.31734147  0.64133899  0.21401879    -0.14700
F2624       F  0.41576628  0.68006008  0.22022555    -0.16100
loop_ 
_geom_bond_atom_site_label_1 
_geom_bond_atom_site_label_2 
_geom_bond_distance 
_geom_bond_site_symmetry_2 
_ccdc_geom_bond_type 
O1           C16   1.264       .  A
O1           Al9   1.892       .  S
C2           O12   1.259       .  A
C2            O3   1.266       .  A
C2         C2609   1.483       .  S
O3           Al5   1.928       .  S
O4            C6   1.256       .  A
O4           Al5   1.888       .  S
Al5          O13   1.890       .  S
Al5          O15   1.942       .  S
Al5          O14   1.776       .  S
C6           O19   1.266       .  A
C6         C2509   1.486       .  S
O7           C17   1.263       .  A
O7           Al9   1.904       .  S
O8           C21   1.258       .  A
O8          Al18   1.886       .  S
Al9          O22   1.955       .  S
Al9          O19   1.944       .  S
Al9          O14   1.780       .  S
O10          C17   1.266       .  A
O10         Al18   1.925       .  S
O11          C20   1.262       .  A
O11         Al18   1.916       .  S
O12         Al18   1.884       .  S
O13          C20   1.258       .  A
O14         Al18   1.774       .  S
O15          C16   1.270       .  A
C16        C2576   1.481       .  S
C17        C2596   1.468       .  S
C20        C2549   1.473       .  S
C21          O22   1.269       .  A
C21        C2529   1.489       .  S
O23          C38   1.266       .  A
O23         Al31   1.918       .  S
C24          O34   1.260       .  A
C24          O25   1.261       .  A
C24        C2449   1.469       .  S
O25         Al27   1.910       .  S
O26          C28   1.260       .  A
O26         Al27   1.894       .  S
Al27         O35   1.888       .  S
Al27         O37   1.906       .  S
Al27         O36   1.779       .  S
C28          O41   1.266       .  A
C28        C2429   1.492       .  S
O29          C39   1.264       .  A
O29         Al31   1.919       .  S
O30          C43   1.262       .  A
O30         Al40   1.896       .  S
Al31         O44   1.934       .  S
Al31         O41   1.934       .  S
Al31         O36   1.784       .  S
O32          C39   1.262       .  A
O32         Al40   1.912       .  S
O33          C42   1.265       .  A
O33         Al40   1.932       .  S
O34         Al40   1.910       .  S
O35          C42   1.259       .  A
O36         Al40   1.786       .  S
O37          C38   1.262       .  A
C38        C2476   1.494       .  S
C39        C2409   1.480       .  S
C42        C2489   1.483       .  S
C43          O44   1.268       .  A
C43        C2569   1.491       .  S
O45          C60   1.263       .  A
O45         Al53   1.888       .  S
C46          O56   1.259       .  A
C46          O47   1.266       .  A
C46        C2369   1.477       .  S
O47         Al49   1.919       .  S
O48          C50   1.254       .  A
O48         Al49   1.879       .  S
Al49         O57   1.892       .  S
Al49         O59   1.915       .  S
Al49         O58   1.774       .  S
C50          O63   1.264       .  A
C50        C2309   1.485       .  S
O51          C61   1.261       .  A
O51         Al53   1.908       .  S
O52          C65   1.261       .  A
O52         Al62   1.882       .  S
Al53         O66   1.954       .  S
Al53         O63   1.937       .  S
Al53         O58   1.784       .  S
O54          C61   1.264       .  A
O54         Al62   1.926       .  S
O55          C64   1.263       .  A
O55         Al62   1.933       .  S
O56         Al62   1.871       .  S
O57          C64   1.256       .  A
O58         Al62   1.775       .  S
O59          C60   1.266       .  A
C60        C2349   1.470       .  S
C61        C2396   1.470       .  S
C64        C2536   1.496       .  S
C65          O66   1.272       .  A
C65        C2329   1.483       .  S
O67          C82   1.261       .  A
O67         Al75   1.915       .  S
C68          O78   1.263       .  A
C68          O69   1.265       .  A
C68        C2249   1.462       .  S
O69         Al71   1.904       .  S
O70          C72   1.261       .  A
O70         Al71   1.892       .  S
Al71         O79   1.909       .  S
Al71         O81   1.888       .  S
Al71         O80   1.782       .  S
C72          O85   1.265       .  A
C72        C2269   1.491       .  S
O73          C83   1.262       .  A
O73         Al75   1.938       .  S
O74          C87   1.265       .  A
O74         Al84   1.883       .  S
Al75         O88   1.927       .  S
Al75         O85   1.923       .  S
Al75         O80   1.791       .  S
O76          C83   1.254       .  A
O76         Al84   1.893       .  S
O77          C86   1.258       .  A
O77         Al84   1.917       .  S
O78         Al84   1.898       .  S
O79          C86   1.259       .  A
O80         Al84   1.792       .  S
O81          C82   1.257       .  A
C82        C2289   1.483       .  S
C83        C2229   1.494       .  S
C86        C2469   1.493       .  S
C87          O88   1.271       .  A
C87        C2356   1.472       .  S
O89         C104   1.262       .  A
O89         Al97   1.889       .  S
C90         O100   1.259       .  A
C90          O91   1.271       .  A
C90        C2189   1.486       .  S
O91         Al93   1.942       .  S
O92          C94   1.254       .  A
O92         Al93   1.878       .  S
Al93        O101   1.902       .  S
Al93        O103   1.934       .  S
Al93        O102   1.777       .  S
C94         O107   1.262       .  A
C94        C2136   1.481       .  S
O95         C105   1.260       .  A
O95         Al97   1.909       .  S
O96         C109   1.263       .  A
O96        Al106   1.886       .  S
Al97        O110   1.948       .  S
Al97        O107   1.931       .  S
Al97        O102   1.787       .  S
O98         C105   1.260       .  A
O98        Al106   1.906       .  S
O99         C108   1.258       .  A
O99        Al106   1.910       .  S
O100       Al106   1.869       .  S
O101        C108   1.257       .  A
O102       Al106   1.776       .  S
O103        C104   1.270       .  A
C104       C2169   1.482       .  S
C105       C2209   1.470       .  S
C108       C2336   1.492       .  S
C109        O110   1.272       .  A
C109       C2149   1.483       .  S
O111        C126   1.267       .  A
O111       Al119   1.925       .  S
C112        O122   1.260       .  A
C112        O113   1.259       .  A
C112       C2069   1.468       .  S
O113       Al115   1.900       .  S
O114        C116   1.261       .  A
O114       Al115   1.900       .  S
Al115       O123   1.893       .  S
Al115       O125   1.905       .  S
Al115       O124   1.783       .  S
C116        O129   1.263       .  A
C116       C2089   1.482       .  S
O117        C127   1.263       .  A
O117       Al119   1.922       .  S
O118        C131   1.263       .  A
O118       Al128   1.896       .  S
Al119       O132   1.927       .  S
Al119       O129   1.918       .  S
Al119       O124   1.789       .  S
O120        C127   1.259       .  A
O120       Al128   1.901       .  S
O121        C130   1.264       .  A
O121       Al128   1.925       .  S
O122       Al128   1.912       .  S
O123        C130   1.261       .  A
O124       Al128   1.789       .  S
O125        C126   1.261       .  A
C126       C2116   1.498       .  S
C127       C2056   1.473       .  S
C130       C2296   1.480       .  S
C131        O132   1.265       .  A
C131       C2176   1.483       .  S
O133        C148   1.261       .  A
O133       Al141   1.891       .  S
C134        O144   1.260       .  A
C134        O135   1.266       .  A
C134       C2029   1.484       .  S
O135       Al137   1.925       .  S
O136        C138   1.258       .  A
O136       Al137   1.880       .  S
Al137       O145   1.897       .  S
Al137       O147   1.908       .  S
Al137       O146   1.777       .  S
C138        O151   1.267       .  A
C138       C1976   1.487       .  S
O139        C149   1.261       .  A
O139       Al141   1.915       .  S
O140        C153   1.259       .  A
O140       Al150   1.873       .  S
Al141       O154   1.958       .  S
Al141       O151   1.944       .  S
Al141       O146   1.787       .  S
O142        C149   1.260       .  A
O142       Al150   1.908       .  S
O143        C152   1.260       .  A
O143       Al150   1.914       .  S
O144       Al150   1.882       .  S
O145        C152   1.259       .  A
O146       Al150   1.775       .  S
O147        C148   1.262       .  A
C148       C1996   1.468       .  S
C149       C2016   1.469       .  S
C152       C2156   1.488       .  S
C153        O154   1.272       .  A
C153       C2556   1.482       .  S
O155        C170   1.258       .  A
O155       Al163   1.904       .  S
C156        O166   1.265       .  A
C156        O157   1.266       .  A
C156       C1956   1.464       .  S
O157       Al159   1.918       .  S
O158        C160   1.258       .  A
O158       Al159   1.875       .  S
Al159       O167   1.904       .  S
Al159       O169   1.897       .  S
Al159       O168   1.781       .  S
C160        O173   1.263       .  A
C160       C1929   1.481       .  S
O161        C171   1.257       .  A
O161       Al163   1.918       .  S
O162        C175   1.267       .  A
O162       Al172   1.888       .  S
Al163       O176   1.925       .  S
Al163       O173   1.919       .  S
Al163       O168   1.791       .  S
O164        C171   1.256       .  A
O164       Al172   1.903       .  S
O165        C174   1.261       .  A
O165       Al172   1.928       .  S
O166       Al172   1.905       .  S
O167        C174   1.258       .  A
O168       Al172   1.789       .  S
O169        C170   1.258       .  A
C170       C2496   1.479       .  S
C171       C1909   1.485       .  S
C174       C2109   1.495       .  S
C175        O176   1.272       .  A
C175       C1989   1.473       .  S
O177        C192   1.260       .  A
O177       Al185   1.893       .  S
C178        O188   1.263       .  A
C178        O179   1.266       .  A
C178       C2196   1.479       .  S
O179       Al181   1.925       .  S
O180        C182   1.257       .  A
O180       Al181   1.879       .  S
Al181       O189   1.902       .  S
Al181       O191   1.923       .  S
Al181       O190   1.780       .  S
C182        O195   1.268       .  A
C182       C1836   1.486       .  S
O183        C193   1.262       .  A
O183       Al185   1.914       .  S
O184        C197   1.262       .  A
O184       Al194   1.888       .  S
Al185       O198   1.945       .  S
Al185       O195   1.946       .  S
Al185       O190   1.784       .  S
O186        C193   1.262       .  A
O186       Al194   1.912       .  S
O187        C196   1.263       .  A
O187       Al194   1.918       .  S
O188       Al194   1.892       .  S
O189        C196   1.260       .  A
O190       Al194   1.774       .  S
O191        C192   1.265       .  A
C192       C1889   1.482       .  S
C193       C2389   1.480       .  S
C196       C1869   1.489       .  S
C197        O198   1.270       .  A
C197       C1849   1.484       .  S
O199        C214   1.262       .  A
O199       Al207   1.908       .  S
C200        O210   1.264       .  A
C200        O201   1.263       .  A
C200       C2076   1.468       .  S
O201       Al203   1.900       .  S
O202        C204   1.258       .  A
O202       Al203   1.887       .  S
Al203       O211   1.894       .  S
Al203       O213   1.893       .  S
Al203       O212   1.779       .  S
C204        O217   1.265       .  A
C204       C2276   1.492       .  S
O205        C215   1.262       .  A
O205       Al207   1.923       .  S
O206        C219   1.266       .  A
O206       Al216   1.899       .  S
Al207       O220   1.934       .  S
Al207       O217   1.934       .  S
Al207       O212   1.792       .  S
O208        C215   1.258       .  A
O208       Al216   1.899       .  S
O209        C218   1.261       .  A
O209       Al216   1.928       .  S
O210       Al216   1.915       .  S
O211        C218   1.258       .  A
O212       Al216   1.788       .  S
O213        C214   1.259       .  A
C214       C1789   1.476       .  S
C215       C1776   1.481       .  S
C218       C1816   1.488       .  S
C219        O220   1.270       .  A
C219       C1896   1.492       .  S
O221        C236   1.260       .  A
O221       Al229   1.890       .  S
C222        O232   1.261       .  A
C222        O223   1.262       .  A
C222       C2376   1.474       .  S
O223       Al225   1.906       .  S
O224        C226   1.259       .  A
O224       Al225   1.881       .  S
Al225       O233   1.906       .  S
Al225       O235   1.899       .  S
Al225       O234   1.776       .  S
C226        O239   1.269       .  A
C226       C1709   1.492       .  S
O227        C237   1.261       .  A
O227       Al229   1.908       .  S
O228        C241   1.259       .  A
O228       Al238   1.876       .  S
Al229       O242   1.949       .  S
Al229       O239   1.949       .  S
Al229       O234   1.784       .  S
O230        C237   1.261       .  A
O230       Al238   1.905       .  S
O231        C240   1.262       .  A
O231       Al238   1.914       .  S
O232       Al238   1.892       .  S
O233        C240   1.261       .  A
O234       Al238   1.774       .  S
O235        C236   1.261       .  A
C236       C1749   1.480       .  S
C237       C2589   1.468       .  S
C240       C1856   1.490       .  S
C241        O242   1.270       .  A
C241       C1736   1.481       .  S
O243        C258   1.260       .  A
O243       Al251   1.901       .  S
C244        O254   1.260       .  A
C244        O245   1.266       .  A
C244       C2256   1.458       .  S
O245       Al247   1.912       .  S
O246        C248   1.258       .  A
O246       Al247   1.888       .  S
Al247       O255   1.898       .  S
Al247       O257   1.906       .  S
Al247       O256   1.781       .  S
C248        O261   1.264       .  A
C248       C2436   1.491       .  S
O249        C259   1.262       .  A
O249       Al251   1.918       .  S
O250        C263   1.262       .  A
O250       Al260   1.878       .  S
Al251       O264   1.926       .  S
Al251       O261   1.925       .  S
Al251       O256   1.789       .  S
O252        C259   1.260       .  A
O252       Al260   1.909       .  S
O253        C262   1.260       .  A
O253       Al260   1.917       .  S
O254       Al260   1.887       .  S
O255        C262   1.257       .  A
O256       Al260   1.786       .  S
O257        C258   1.261       .  A
C258       C1689   1.470       .  S
C259       C1669   1.489       .  S
C262       C1796   1.481       .  S
C263        O264   1.269       .  A
C263       C1756   1.478       .  S
O265        C280   1.262       .  A
O265       Al273   1.875       .  S
C266        O276   1.259       .  A
C266        O267   1.270       .  A
C266       C2616   1.488       .  S
O267       Al269   1.942       .  S
O268        C270   1.255       .  A
O268       Al269   1.878       .  S
Al269       O277   1.890       .  S
Al269       O279   1.940       .  S
Al269       O278   1.776       .  S
C270        O283   1.264       .  A
C270       C1616   1.489       .  S
O271        C281   1.264       .  A
O271       Al273   1.906       .  S
O272        C285   1.258       .  A
O272       Al282   1.879       .  S
Al273       O286   1.954       .  S
Al273       O283   1.943       .  S
Al273       O278   1.784       .  S
O274        C281   1.266       .  A
O274       Al282   1.922       .  S
O275        C284   1.259       .  A
O275       Al282   1.910       .  S
O276       Al282   1.870       .  S
O277        C284   1.256       .  A
O278       Al282   1.771       .  S
O279        C280   1.272       .  A
C280       C1656   1.479       .  S
C281       C2009   1.474       .  S
C284       C1729   1.470       .  S
C285        O286   1.270       .  A
C285       C1629   1.484       .  S
O287        C302   1.263       .  A
O287       Al295   1.905       .  S
C288        O298   1.261       .  A
C288        O289   1.267       .  A
C288       C2456   1.468       .  S
O289       Al291   1.925       .  S
O290        C292   1.258       .  A
O290       Al291   1.891       .  S
Al291       O299   1.893       .  S
Al291       O301   1.917       .  S
Al291       O300   1.777       .  S
C292        O305   1.260       .  A
C292       C1936   1.487       .  S
O293        C303   1.264       .  A
O293       Al295   1.926       .  S
O294        C307   1.265       .  A
O294       Al304   1.896       .  S
Al295       O308   1.916       .  S
Al295       O305   1.916       .  S
Al295       O300   1.786       .  S
O296        C303   1.260       .  A
O296       Al304   1.897       .  S
O297        C306   1.260       .  A
O297       Al304   1.919       .  S
O298       Al304   1.897       .  S
O299        C306   1.257       .  A
O300       Al304   1.783       .  S
O301        C302   1.265       .  A
C302       C1589   1.492       .  S
C303       C1576   1.477       .  S
C306       C1696   1.489       .  S
C307        O308   1.265       .  A
C307       C1649   1.484       .  S
O309        C324   1.259       .  A
O309       Al317   1.878       .  S
C310        O320   1.263       .  A
C310        O311   1.265       .  A
C310       C2036   1.482       .  S
O311       Al313   1.918       .  S
O312        C314   1.255       .  A
O312       Al313   1.874       .  S
Al313       O321   1.904       .  S
Al313       O323   1.913       .  S
Al313       O322   1.777       .  S
C314        O327   1.264       .  A
C314       C1529   1.483       .  S
O315        C325   1.259       .  A
O315       Al317   1.898       .  S
O316        C329   1.264       .  A
O316       Al326   1.896       .  S
Al317       O330   1.939       .  S
Al317       O327   1.932       .  S
Al317       O322   1.783       .  S
O318        C325   1.261       .  A
O318       Al326   1.909       .  S
O319        C328   1.261       .  A
O319       Al326   1.912       .  S
O320       Al326   1.890       .  S
O321        C328   1.259       .  A
O322       Al326   1.774       .  S
O323        C324   1.265       .  A
C324       C1556   1.476       .  S
C325       C2216   1.466       .  S
C328       C1636   1.490       .  S
C329        O330   1.269       .  A
C329       C1876   1.483       .  S
O331        C346   1.260       .  A
O331       Al339   1.903       .  S
C332        O342   1.265       .  A
C332        O333   1.268       .  A
C332       C1949   1.473       .  S
O333       Al335   1.923       .  S
O334        C336   1.262       .  A
O334       Al335   1.896       .  S
Al335       O343   1.913       .  S
Al335       O345   1.907       .  S
Al335       O344   1.778       .  S
C336        O349   1.261       .  A
C336       C2096   1.488       .  S
O337        C347   1.257       .  A
O337       Al339   1.912       .  S
O338        C351   1.265       .  A
O338       Al348   1.887       .  S
Al339       O352   1.920       .  S
Al339       O349   1.904       .  S
Al339       O344   1.786       .  S
O340        C347   1.258       .  A
O340       Al348   1.908       .  S
O341        C350   1.260       .  A
O341       Al348   1.918       .  S
O342       Al348   1.906       .  S
O343        C350   1.260       .  A
O344       Al348   1.787       .  S
O345        C346   1.261       .  A
C346       C1809   1.479       .  S
C347       C1509   1.475       .  S
C350       C1596   1.483       .  S
C351        O352   1.268       .  A
C351       C1549   1.478       .  S
O353        C368   1.261       .  A
O353       Al361   1.873       .  S
C354        O364   1.258       .  A
C354        O355   1.267       .  A
C354       C1496   1.483       .  S
O355       Al357   1.928       .  S
O356        C358   1.257       .  A
O356       Al357   1.893       .  S
Al357       O365   1.897       .  S
Al357       O367   1.924       .  S
Al357       O366   1.776       .  S
C358        O371   1.260       .  A
C358       C1769   1.482       .  S
O359        C369   1.264       .  A
O359       Al361   1.906       .  S
O360        C373   1.259       .  A
O360       Al370   1.887       .  S
Al361       O374   1.934       .  S
Al361       O371   1.921       .  S
Al361       O366   1.783       .  S
O362        C369   1.268       .  A
O362       Al370   1.929       .  S
O363        C372   1.261       .  A
O363       Al370   1.918       .  S
O364       Al370   1.867       .  S
O365        C372   1.257       .  A
O366       Al370   1.770       .  S
O367        C368   1.269       .  A
C368       C1456   1.477       .  S
C369       C1476   1.482       .  S
C372       C1429   1.492       .  S
C373        O374   1.265       .  A
C373       C1409   1.479   1_655  S
O375        C390   1.262       .  A
O375       Al383   1.910       .  S
C376        O386   1.262       .  A
C376        O377   1.265       .  A
C376       C1336   1.454       .  S
O377       Al379   1.908       .  S
O378        C380   1.258       .  A
O378       Al379   1.886       .  S
Al379       O387   1.903       .  S
Al379       O389   1.891       .  S
Al379       O388   1.778       .  S
C380        O393   1.261       .  A
C380       C1349   1.483       .  S
O381        C391   1.261       .  A
O381       Al383   1.926       .  S
O382        C395   1.264       .  A
O382       Al392   1.879       .  S
Al383       O396   1.926       .  S
Al383       O393   1.911       .  S
Al383       O388   1.788       .  S
O384        C391   1.258       .  A
O384       Al392   1.906       .  S
O385        C394   1.260       .  A
O385       Al392   1.925       .  S
O386       Al392   1.893       .  S
O387        C394   1.258       .  A
O388       Al392   1.785       .  S
O389        C390   1.259       .  A
C390       C1369   1.477       .  S
C391       C1829   1.487       .  S
C394       C1396   1.487       .  S
C395        O396   1.270       .  A
C395       C1449   1.466       .  S
O397        C412   1.262       .  A
O397       Al405   1.892       .  S
C398        O408   1.259       .  A
C398        O399   1.264       .  A
C398       C1309   1.475       .  S
O399       Al401   1.922       .  S
O400        C402   1.256       .  A
O400       Al401   1.878       .  S
Al401       O409   1.898       .  S
Al401       O411   1.916       .  S
Al401       O410   1.781       .  S
C402        O415   1.265       .  A
C402       C1569   1.482       .  S
O403        C413   1.263       .  A
O403       Al405   1.920       .  S
O404        C417   1.262       .  A
O404       Al414   1.886       .  S
Al405       O418   1.945       .  S
Al405       O415   1.939       .  S
Al405       O410   1.786       .  S
O406        C413   1.263       .  A
O406       Al414   1.913       .  S
O407        C416   1.264       .  A
O407       Al414   1.928       .  S
O408       Al414   1.880       .  S
O409        C416   1.259       .  A
O410       Al414   1.774       .  S
O411        C412   1.265       .  A
C412       C1276   1.487       .  S
C413       C1289   1.480       .  S
C416       C1249   1.491       .  S
C417        O418   1.269       .  A
C417       C1236   1.480       .  S
O419        C434   1.264       .  A
O419       Al427   1.917       .  S
C420        O430   1.262       .  A
C420        O421   1.262       .  A
C420       C1176   1.471       .  S
O421       Al423   1.906       .  S
O422        C424   1.260       .  A
O422       Al423   1.891       .  S
Al423       O431   1.900       .  S
Al423       O433   1.907       .  S
Al423       O432   1.779       .  S
C424        O437   1.263       .  A
C424       C1156   1.485       .  S
O425        C435   1.263       .  A
O425       Al427   1.918       .  S
O426        C439   1.262       .  A
O426       Al436   1.891       .  S
Al427       O440   1.917       .  S
Al427       O437   1.918       .  S
Al427       O432   1.789       .  S
O428        C435   1.262       .  A
O428       Al436   1.913       .  S
O429        C438   1.264       .  A
O429       Al436   1.925       .  S
O430       Al436   1.913       .  S
O431        C438   1.261       .  A
O432       Al436   1.784       .  S
O433        C434   1.262       .  A
C434       C1189   1.496       .  S
C435       C1609   1.487       .  S
C438       C1216   1.484       .  S
C439        O440   1.265       .  A
C439       C1269   1.479       .  S
O441        C456   1.259       .  A
O441       Al449   1.873       .  S
C442        O452   1.262       .  A
C442        O443   1.267       .  A
C442       C1116   1.482       .  S
O443       Al445   1.922       .  S
O444        C446   1.253       .  A
O444       Al445   1.876       .  S
Al445       O453   1.896       .  S
Al445       O455   1.928       .  S
Al445       O454   1.778       .  S
C446        O459   1.266       .  A
C446       C1676   1.481       .  S
O447        C457   1.263       .  A
O447       Al449   1.911       .  S
O448        C461   1.262       .  A
O448       Al458   1.890       .  S
Al449       O462   1.950       .  S
Al449       O459   1.949       .  S
Al449       O454   1.785       .  S
O450        C457   1.264       .  A
O450       Al458   1.918       .  S
O451        C460   1.261       .  A
O451       Al458   1.915       .  S
O452       Al458   1.890       .  S
O453        C460   1.257       .  A
O454       Al458   1.774       .  S
O455        C456   1.268       .  A
C456       C1089   1.480       .  S
C457       C1129   1.478       .  S
C460       C1229   1.478       .  S
C461        O462   1.271       .  A
C461       C1436   1.486       .  S
O463        C478   1.261       .  A
O463       Al471   1.910       .  S
C464        O474   1.266       .  A
C464        O465   1.270       .  A
C464       C1056   1.467       .  S
O465       Al467   1.924       .  S
O466        C468   1.258       .  A
O466       Al467   1.886       .  S
Al467       O475   1.907       .  S
Al467       O477   1.903       .  S
Al467       O476   1.779       .  S
C468        O481   1.263       .  A
C468       C1069   1.488       .  S
O469        C479   1.261       .  A
O469       Al471   1.931       .  S
O470        C483   1.268       .  A
O470       Al480   1.891       .  S
Al471       O484   1.927       .  S
Al471       O481   1.917       .  S
Al471       O476   1.789       .  S
O472        C479   1.255       .  A
O472       Al480   1.903       .  S
O473        C482   1.258       .  A
O473       Al480   1.922       .  S
O474       Al480   1.905       .  S
O475        C482   1.256       .  A
O476       Al480   1.789       .  S
O477        C478   1.261       .  A
C478       C1389   1.485       .  S
C479       C1716   1.488       .  S
C482       C1196   1.492       .  S
C483        O484   1.272       .  A
C483       C1096   1.485       .  S
O485        C500   1.263       .  A
O485       Al493   1.893       .  S
C486        O496   1.260       .  A
C486        O487   1.268       .  A
C486       C1029   1.488       .  S
O487       Al489   1.930       .  S
O488        C490   1.255       .  A
O488       Al489   1.878       .  S
Al489       O497   1.890       .  S
Al489       O499   1.925       .  S
Al489       O498   1.775       .  S
C490        O503   1.266       .  A
C490       C1516   1.492       .  S
O491        C501   1.261       .  A
O491       Al493   1.905       .  S
O492        C505   1.261       .  A
O492       Al502   1.889       .  S
Al493       O506   1.952       .  S
Al493       O503   1.939       .  S
Al493       O498   1.781       .  S
O494        C501   1.263       .  A
O494       Al502   1.914       .  S
O495        C504   1.260       .  A
O495       Al502   1.913       .  S
O496       Al502   1.885       .  S
O497        C504   1.258       .  A
O498       Al502   1.774       .  S
O499        C500   1.267       .  A
C500        C996   1.490       .  S
C501       C1009   1.465       .  S
C504       C1416   1.486       .  S
C505        O506   1.270       .  A
C505       C1256   1.485   1_545  S
O507        C522   1.265       .  A
O507       Al515   1.917       .  S
C508        O518   1.261       .  A
C508        O509   1.264       .  A
C508        C969   1.466       .  S
O509       Al511   1.918       .  S
O510        C512   1.256       .  A
O510       Al511   1.874       .  S
Al511       O519   1.888       .  S
Al511       O521   1.899       .  S
Al511       O520   1.777       .  S
C512        O525   1.265       .  A
C512        C956   1.489       .  S
O513        C523   1.265       .  A
O513       Al515   1.933       .  S
O514        C527   1.263       .  A
O514       Al524   1.889       .  S
Al515       O528   1.941       .  S
Al515       O525   1.938       .  S
Al515       O520   1.791       .  S
O516        C523   1.257       .  A
O516       Al524   1.890       .  S
O517        C526   1.259       .  A
O517       Al524   1.912       .  S
O518       Al524   1.903       .  S
O519        C526   1.256       .  A
O520       Al524   1.782       .  S
O521        C522   1.261       .  A
C522       C1209   1.478       .  S
C523       C1536   1.493       .  S
C526       C1376   1.473       .  S
C527        O528   1.271       .  A
C527        C989   1.485       .  S
O529        C544   1.261       .  A
O529       Al537   1.902       .  S
C530        O540   1.264       .  A
C530        O531   1.268       .  A
C530       C1329   1.466       .  S
O531       Al533   1.917       .  S
O532        C534   1.261       .  A
O532       Al533   1.899       .  S
Al533       O541   1.906       .  S
Al533       O543   1.899       .  S
Al533       O542   1.778       .  S
C534        O547   1.261       .  A
C534       C1076   1.493       .  S
O535        C545   1.261       .  A
O535       Al537   1.923       .  S
O536        C549   1.264       .  A
O536       Al546   1.887       .  S
Al537       O550   1.929       .  S
Al537       O547   1.910       .  S
Al537       O542   1.790       .  S
O538        C545   1.259       .  A
O538       Al546   1.901       .  S
O539        C548   1.257       .  A
O539       Al546   1.911       .  S
O540       Al546   1.898       .  S
O541        C548   1.257       .  A
O542       Al546   1.785       .  S
O543        C544   1.261       .  A
C544        C889   1.473       .  S
C545       C2129   1.489       .  S
C548        C916   1.485       .  S
C549        O550   1.269       .  A
C549        C929   1.474       .  S
O551        C566   1.261       .  A
O551       Al559   1.888       .  S
C552        O562   1.261       .  A
C552        O553   1.267       .  A
C552       C1489   1.476       .  S
O553       Al555   1.929       .  S
O554        C556   1.256       .  A
O554       Al555   1.880       .  S
Al555       O563   1.894       .  S
Al555       O565   1.919       .  S
Al555       O564   1.776       .  S
C556        O569   1.266       .  A
C556       C2049   1.493       .  S
O557        C567   1.261       .  A
O557       Al559   1.909       .  S
O558        C571   1.263       .  A
O558       Al568   1.891       .  S
Al559       O572   1.951       .  S
Al559       O569   1.937       .  S
Al559       O564   1.780       .  S
O560        C567   1.263       .  A
O560       Al568   1.921       .  S
O561        C570   1.262       .  A
O561       Al568   1.923       .  S
O562       Al568   1.883       .  S
O563        C570   1.257       .  A
O564       Al568   1.775       .  S
O565        C566   1.266       .  A
C566        C936   1.487       .  S
C567       C1136   1.469       .  S
C570        C876   1.491       .  S
C571        O572   1.271       .  A
C571        C856   1.486   1_545  S
O573        C588   1.263       .  A
O573       Al581   1.909       .  S
C574        O584   1.263       .  A
C574        O575   1.264       .  A
C574       C1049   1.476       .  S
O575       Al577   1.911       .  S
O576        C578   1.260       .  A
O576       Al577   1.898       .  S
Al577       O585   1.901       .  S
Al577       O587   1.906       .  S
Al577       O586   1.780       .  S
C578        O591   1.262       .  A
C578       C1149   1.488       .  S
O579        C589   1.261       .  A
O579       Al581   1.915       .  S
O580        C593   1.264       .  A
O580       Al590   1.899       .  S
Al581       O594   1.924       .  S
Al581       O591   1.911       .  S
Al581       O586   1.785       .  S
O582        C589   1.260       .  A
O582       Al590   1.904       .  S
O583        C592   1.261       .  A
O583       Al590   1.915       .  S
O584       Al590   1.908       .  S
O585        C592   1.260       .  A
O586       Al590   1.783       .  S
O587        C588   1.262       .  A
C588        C809   1.491       .  S
C589       C2316   1.489       .  S
C592        C896   1.485       .  S
C593        O594   1.266       .  A
C593        C829   1.487       .  S
O595        C610   1.264       .  A
O595       Al603   1.892       .  S
C596        O606   1.259       .  A
C596        O597   1.269       .  A
C596       C1109   1.485       .  S
O597       Al599   1.937       .  S
O598        C600   1.255       .  A
O598       Al599   1.887       .  S
Al599       O607   1.900       .  S
Al599       O609   1.933       .  S
Al599       O608   1.780       .  S
C600        O613   1.266       .  A
C600       C2236   1.491       .  S
O601        C611   1.265       .  A
O601       Al603   1.922       .  S
O602        C615   1.262       .  A
O602       Al612   1.891       .  S
Al603       O616   1.961       .  S
Al603       O613   1.952       .  S
Al603       O608   1.785       .  S
O604        C611   1.265       .  A
O604       Al612   1.923       .  S
O605        C614   1.262       .  A
O605       Al612   1.921       .  S
O606       Al612   1.870       .  S
O607        C614   1.257       .  A
O608       Al612   1.774       .  S
O609        C610   1.270       .  A
C610        C836   1.493       .  S
C611       C1296   1.478       .  S
C614        C849   1.494       .  S
C615        O616   1.272       .  A
C615        C796   1.494   1_655  S
O617        C632   1.261       .  A
O617       Al625   1.911       .  S
C618        O628   1.264       .  A
C618        O619   1.268       .  A
C618       C1169   1.465       .  S
O619       Al621   1.925       .  S
O620        C622   1.259       .  A
O620       Al621   1.892       .  S
Al621       O629   1.906       .  S
Al621       O631   1.903       .  S
Al621       O630   1.780       .  S
C622        O635   1.262       .  A
C622        C949   1.485       .  S
O623        C633   1.261       .  A
O623       Al625   1.935       .  S
O624        C637   1.266       .  A
O624       Al634   1.886       .  S
Al625       O638   1.925       .  S
Al625       O635   1.912       .  S
Al625       O630   1.788       .  S
O626        C633   1.253       .  A
O626       Al634   1.887       .  S
O627        C636   1.257       .  A
O627       Al634   1.912       .  S
O628       Al634   1.900       .  S
O629        C636   1.257       .  A
O630       Al634   1.790       .  S
O631        C632   1.260       .  A
C632        C756   1.486       .  S
C633       C2516   1.487       .  S
C636        C816   1.483       .  S
C637        O638   1.270       .  A
C637        C769   1.464       .  S
O639        C654   1.262       .  A
O639       Al647   1.879       .  S
C640        O650   1.262       .  A
C640        O641   1.266       .  A
C640       C1316   1.480       .  S
O641       Al643   1.918       .  S
O642        C644   1.255       .  A
O642       Al643   1.888       .  S
Al643       O651   1.908       .  S
Al643       O653   1.918       .  S
Al643       O652   1.780       .  S
C644        O657   1.263       .  A
C644       C2416   1.490       .  S
O645        C655   1.262       .  A
O645       Al647   1.905       .  S
O646        C659   1.264       .  A
O646       Al656   1.901       .  S
Al647       O660   1.947       .  S
Al647       O657   1.938       .  S
Al647       O652   1.788       .  S
O648        C655   1.263       .  A
O648       Al656   1.915       .  S
O649        C658   1.261       .  A
O649       Al656   1.915       .  S
O650       Al656   1.884       .  S
O651        C658   1.259       .  A
O652       Al656   1.776       .  S
O653        C654   1.267       .  A
C654        C776   1.473       .  S
C655       C1016   1.471       .  S
C658        C789   1.497       .  S
C659        O660   1.270       .  A
C659        C736   1.490       .  S
O661        C676   1.263       .  A
O661       Al669   1.904       .  S
C662        O672   1.261       .  A
C662        O663   1.264       .  A
C662        C976   1.466       .  S
O663       Al665   1.911       .  S
O664        C666   1.258       .  A
O664       Al665   1.886       .  S
Al665       O673   1.892       .  S
Al665       O675   1.914       .  S
Al665       O674   1.777       .  S
C666        O679   1.263       .  A
C666       C1356   1.488       .  S
O667        C677   1.263       .  A
O667       Al669   1.917       .  S
O668        C681   1.263       .  A
O668       Al678   1.892       .  S
Al669       O682   1.926       .  S
Al669       O679   1.926       .  S
Al669       O674   1.784       .  S
O670        C677   1.263       .  A
O670       Al678   1.920       .  S
O671        C680   1.264       .  A
O671       Al678   1.935       .  S
O672       Al678   1.906       .  S
O673        C680   1.258       .  A
O674       Al678   1.783       .  S
O675        C676   1.264       .  A
C676        C909   1.492       .  S
C677       C1969   1.483       .  S
C680        C749   1.485       .  S
C681        O682   1.267       .  A
C681        C716   1.488       .  S
O683        C698   1.261       .  A
O683       Al691   1.889       .  S
C684        O694   1.260       .  A
C684        O685   1.266       .  A
C684       C1036   1.483       .  S
O685       Al687   1.931       .  S
O686        C688   1.257       .  A
O686       Al687   1.887       .  S
Al687       O695   1.904       .  S
Al687       O697   1.933       .  S
Al687       O696   1.777       .  S
C688        O701   1.265       .  A
C688       C1916   1.482       .  S
O689        C699   1.263       .  A
O689       Al691   1.909       .  S
O690        C703   1.260       .  A
O690       Al700   1.891       .  S
Al691       O704   1.940       .  S
Al691       O701   1.943       .  S
Al691       O696   1.784       .  S
O692        C699   1.265       .  A
O692       Al700   1.926       .  S
O693        C702   1.264       .  A
O693       Al700   1.923       .  S
O694       Al700   1.884       .  S
O695        C702   1.261       .  A
O696       Al700   1.772       .  S
O697        C698   1.268       .  A
C698        C709   1.472       .  S
C699       C1469   1.470       .  S
C702        C729   1.496       .  S
C703        O704   1.267       .  A
C703        C869   1.484       .  S
C705        C706   1.403       .  A
C705        C710   1.399       .  A
C705        F723   1.358       .  S
C706        C711   1.474   1_556  S
C706        C707   1.404       .  A
C707        C708   1.400       .  A
C707        F712   1.358       .  S
C708        C709   1.405       .  A
C708        F724   1.358       .  S
C709        C710   1.407       .  A
C710        F713   1.358       .  S
C711        C714   1.401       .  A
C711        C718   1.400       .  A
C714        C715   1.399       .  A
C714        F719   1.358       .  S
C715        C716   1.413       .  A
C715        F721   1.358       .  S
C716        C717   1.413       .  A
C717        C718   1.398       .  A
C717        F720   1.358       .  S
C718        F722   1.358       .  S
C725        C726   1.405       .  A
C725        C730   1.399       .  A
C725        F743   1.358       .  S
C726        C731   1.491       .  S
C726        C727   1.406       .  A
C727        C728   1.406       .  A
C727        F732   1.358       .  S
C728        C729   1.414       .  A
C728        F744   1.358       .  S
C729        C730   1.412       .  A
C730        F733   1.358       .  S
C731        C734   1.406       .  A
C731        C738   1.407       .  A
C734        C735   1.403       .  A
C734        F739   1.358       .  S
C735        C736   1.412   1_545  A
C735        F741   1.358       .  S
C736        C737   1.409   1_565  A
C737        C738   1.402       .  A
C737        F740   1.358   1_545  S
C738        F742   1.358       .  S
C745        C746   1.407       .  A
C745        C750   1.399       .  A
C745        F763   1.358       .  S
C746        C751   1.493       .  S
C746        C747   1.409       .  A
C747        C748   1.407       .  A
C747        F752   1.357       .  S
C748        C749   1.408       .  A
C748        F764   1.358       .  S
C749        C750   1.407       .  A
C750        F753   1.358       .  S
C751        C754   1.408       .  A
C751        C758   1.408       .  A
C754        C755   1.402   1_545  A
C754        F759   1.358       .  S
C755        C756   1.408       .  A
C755        F761   1.358       .  S
C756        C757   1.408   1_565  A
C757        C758   1.404       .  A
C757        F760   1.358       .  S
C758        F762   1.358       .  S
C765        C766   1.407       .  A
C765        C770   1.398       .  A
C765        F783   1.358       .  S
C766        C771   1.478   1_554  S
C766        C767   1.406       .  A
C767        C768   1.396       .  A
C767        F772   1.358       .  S
C768        C769   1.402       .  A
C768        F784   1.358       .  S
C769        C770   1.403       .  A
C770        F773   1.358       .  S
C771        C774   1.405       .  A
C771        C778   1.406       .  A
C774        C775   1.397       .  A
C774        F779   1.358       .  S
C775        C776   1.407       .  A
C775        F781   1.358       .  S
C776        C777   1.406       .  A
C777        C778   1.395       .  A
C777        F780   1.358       .  S
C778        F782   1.358       .  S
C785        C786   1.404       .  A
C785        C790   1.399       .  A
C785        F803   1.358       .  S
C786        C791   1.490       .  S
C786        C787   1.406       .  A
C787        C788   1.408       .  A
C787        F792   1.357       .  S
C788        C789   1.414       .  A
C788        F804   1.358       .  S
C789        C790   1.413       .  A
C790        F793   1.358       .  S
C791        C794   1.407       .  A
C791        C798   1.404       .  A
C794        C795   1.406       .  A
C794        F799   1.358       .  S
C795        C796   1.412       .  A
C795        F801   1.358       .  S
C796        C797   1.412       .  A
C797        C798   1.401       .  A
C797        F800   1.358   1_455  S
C798        F802   1.358       .  S
C805        C806   1.408       .  A
C805        C810   1.404       .  A
C805        F823   1.358       .  S
C806        C811   1.491       .  S
C806        C807   1.406       .  A
C807        C808   1.396       .  A
C807        F812   1.358       .  S
C808        C809   1.412   1_455  A
C808        F824   1.358   1_455  S
C809        C810   1.411   1_655  A
C810        F813   1.358       .  S
C811        C814   1.409       .  A
C811        C818   1.407       .  A
C814        C815   1.401       .  A
C814        F819   1.358       .  S
C815        C816   1.406       .  A
C815        F821   1.358       .  S
C816        C817   1.410       .  A
C817        C818   1.399       .  A
C817        F820   1.358       .  S
C818        F822   1.358       .  S
C825        C826   1.406       .  A
C825        C830   1.400       .  A
C825        F843   1.358       .  S
C826        C831   1.488   1_554  S
C826        C827   1.406       .  A
C827        C828   1.400       .  A
C827        F832   1.358       .  S
C828        C829   1.410       .  A
C828        F844   1.358       .  S
C829        C830   1.411       .  A
C830        F833   1.358       .  S
C831        C834   1.405       .  A
C831        C838   1.405       .  A
C834        C835   1.400       .  A
C834        F839   1.358       .  S
C835        C836   1.412       .  A
C835        F841   1.357       .  S
C836        C837   1.414       .  A
C837        C838   1.401       .  A
C837        F840   1.358       .  S
C838        F842   1.358       .  S
C845        C846   1.407       .  A
C845        C850   1.404       .  A
C845        F863   1.358       .  S
C846        C851   1.494       .  S
C846        C847   1.408       .  A
C847        C848   1.400       .  A
C847        F852   1.358       .  S
C848        C849   1.410       .  A
C848        F864   1.358       .  S
C849        C850   1.413       .  A
C850        F853   1.358       .  S
C851        C854   1.408       .  A
C851        C858   1.409       .  A
C854        C855   1.400       .  A
C854        F859   1.358       .  S
C855        C856   1.408       .  A
C855        F861   1.358   1_565  S
C856        C857   1.408       .  A
C857        C858   1.403       .  A
C857        F860   1.358       .  S
C858        F862   1.358       .  S
C865        C866   1.408       .  A
C865        C870   1.400       .  A
C865        F883   1.358       .  S
C866        C871   1.488       .  S
C866        C867   1.406       .  A
C867        C868   1.400   1_655  A
C867        F872   1.358       .  S
C868        C869   1.410       .  A
C868        F884   1.358       .  S
C869        C870   1.408   1_455  A
C870        F873   1.358       .  S
C871        C874   1.406       .  A
C871        C878   1.405       .  A
C874        C875   1.399       .  A
C874        F879   1.358       .  S
C875        C876   1.411       .  A
C875        F881   1.358       .  S
C876        C877   1.413       .  A
C877        C878   1.401       .  A
C877        F880   1.358       .  S
C878        F882   1.358       .  S
C885        C886   1.408       .  A
C885        C890   1.399   1_565  A
C885        F903   1.358       .  S
C886        C891   1.491       .  S
C886        C887   1.411       .  A
C887        C888   1.401       .  A
C887        F892   1.358       .  S
C888        C889   1.403   1_565  A
C888        F904   1.358       .  S
C889        C890   1.404       .  A
C890        F893   1.358       .  S
C891        C894   1.409       .  A
C891        C898   1.407       .  A
C894        C895   1.398       .  A
C894        F899   1.358       .  S
C895        C896   1.407       .  A
C895        F901   1.358       .  S
C896        C897   1.411       .  A
C897        C898   1.402       .  A
C897        F900   1.358       .  S
C898        F902   1.358       .  S
C905        C906   1.405       .  A
C905        C910   1.403       .  A
C905        F923   1.358       .  S
C906        C911   1.485       .  S
C906        C907   1.404       .  A
C907        C908   1.398   1_655  A
C907        F912   1.358       .  S
C908        C909   1.413       .  A
C908        F924   1.358       .  S
C909        C910   1.413   1_455  A
C910        F913   1.358   1_655  S
C911        C914   1.407       .  A
C911        C918   1.404       .  A
C914        C915   1.402       .  A
C914        F919   1.358       .  S
C915        C916   1.408       .  A
C915        F921   1.357       .  S
C916        C917   1.411       .  A
C917        C918   1.399       .  A
C917        F920   1.358       .  S
C918        F922   1.358       .  S
C925        C926   1.403       .  A
C925        C930   1.396       .  A
C925        F943   1.358       .  S
C926        C931   1.475   1_554  S
C926        C927   1.404       .  A
C927        C928   1.399       .  A
C927        F932   1.358       .  S
C928        C929   1.408       .  A
C928        F944   1.358       .  S
C929        C930   1.407       .  A
C930        F933   1.358       .  S
C931        C934   1.402       .  A
C931        C938   1.402       .  A
C934        C935   1.399       .  A
C934        F939   1.358       .  S
C935        C936   1.414       .  A
C935        F941   1.358       .  S
C936        C937   1.412       .  A
C937        C938   1.396       .  A
C937        F940   1.358       .  S
C938        F942   1.358       .  S
C945        C946   1.408       .  A
C945        C950   1.401       .  A
C945        F963   1.358       .  S
C946        C951   1.489       .  S
C946        C947   1.407       .  A
C947        C948   1.400       .  A
C947        F952   1.358   1_565  S
C948        C949   1.409       .  A
C948        F964   1.358       .  S
C949        C950   1.409       .  A
C950        F953   1.358       .  S
C951        C954   1.408       .  A
C951        C958   1.405   1_565  A
C954        C955   1.406   1_565  A
C954        F959   1.358       .  S
C955        C956   1.411       .  A
C955        F961   1.358       .  S
C956        C957   1.411       .  A
C957        C958   1.395       .  A
C957        F960   1.358       .  S
C958        F962   1.358       .  S
C965        C966   1.407       .  A
C965        C970   1.396       .  A
C965        F983   1.358       .  S
C966        C971   1.480       .  S
C966        C967   1.407       .  A
C967        C968   1.402       .  A
C967        F972   1.358       .  S
C968        C969   1.404       .  A
C968        F984   1.358       .  S
C969        C970   1.402       .  A
C970        F973   1.358       .  S
C971        C974   1.408       .  A
C971        C978   1.406       .  A
C974        C975   1.403       .  A
C974        F979   1.358       .  S
C975        C976   1.405       .  A
C975        F981   1.358       .  S
C976        C977   1.401       .  A
C977        C978   1.394       .  A
C977        F980   1.358       .  S
C978        F982   1.358       .  S
C985        C986   1.404       .  A
C985        C990   1.400       .  A
C985       F1003   1.358       .  S
C986        C991   1.481       .  S
C986        C987   1.403       .  A
C987        C988   1.400       .  A
C987        F992   1.358       .  S
C988        C989   1.410       .  A
C988       F1004   1.358       .  S
C989        C990   1.411       .  A
C990        F993   1.358       .  S
C991        C994   1.402       .  A
C991        C998   1.403       .  A
C994        C995   1.398       .  A
C994        F999   1.358       .  S
C995        C996   1.412       .  A
C995       F1001   1.358       .  S
C996        C997   1.414       .  A
C997        C998   1.401       .  A
C997       F1000   1.358       .  S
C998       F1002   1.358       .  S
C1005      C1006   1.406       .  A
C1005      C1010   1.401       .  A
C1005      F1023   1.358       .  S
C1006      C1011   1.475   1_545  S
C1006      C1007   1.404   1_545  A
C1007      C1008   1.394   1_565  A
C1007      F1012   1.358       .  S
C1008      C1009   1.403       .  A
C1008      F1024   1.358   1_545  S
C1009      C1010   1.404       .  A
C1010      F1013   1.358       .  S
C1011      C1014   1.404   1_565  A
C1011      C1018   1.405       .  A
C1014      C1015   1.395   1_545  A
C1014      F1019   1.358       .  S
C1015      C1016   1.406       .  A
C1015      F1021   1.359   1_565  S
C1016      C1017   1.405       .  A
C1017      C1018   1.400       .  A
C1017      F1020   1.358       .  S
C1018      F1022   1.357       .  S
C1025      C1026   1.403       .  A
C1025      C1030   1.401       .  A
C1025      F1043   1.358       .  S
C1026      C1031   1.477       .  S
C1026      C1027   1.402       .  A
C1027      C1028   1.396       .  A
C1027      F1032   1.359       .  S
C1028      C1029   1.413       .  A
C1028      F1044   1.358       .  S
C1029      C1030   1.412       .  A
C1030      F1033   1.358       .  S
C1031      C1034   1.402       .  A
C1031      C1038   1.404       .  A
C1034      C1035   1.396       .  A
C1034      F1039   1.358       .  S
C1035      C1036   1.411       .  A
C1035      F1041   1.357       .  S
C1036      C1037   1.410       .  A
C1037      C1038   1.400       .  A
C1037      F1040   1.358       .  S
C1038      F1042   1.358       .  S
C1045      C1046   1.404       .  A
C1045      C1050   1.404       .  A
C1045      F1063   1.357       .  S
C1046      C1051   1.474       .  S
C1046      C1047   1.402       .  A
C1047      C1048   1.394       .  A
C1047      F1052   1.359       .  S
C1048      C1049   1.406       .  A
C1048      F1064   1.358       .  S
C1049      C1050   1.408       .  A
C1050      F1053   1.358       .  S
C1051      C1054   1.404       .  A
C1051      C1058   1.405       .  A
C1054      C1055   1.395       .  A
C1054      F1059   1.358       .  S
C1055      C1056   1.403       .  A
C1055      F1061   1.358       .  S
C1056      C1057   1.405       .  A
C1057      C1058   1.403       .  A
C1057      F1060   1.358       .  S
C1058      F1062   1.357       .  S
C1065      C1066   1.403       .  A
C1065      C1070   1.399       .  A
C1065      F1083   1.358       .  S
C1066      C1071   1.480   1_565  S
C1066      C1067   1.403       .  A
C1067      C1068   1.403       .  A
C1067      F1072   1.358   1_565  S
C1068      C1069   1.412       .  A
C1068      F1084   1.358       .  S
C1069      C1070   1.411       .  A
C1070      F1073   1.358       .  S
C1071      C1074   1.402   1_545  A
C1071      C1078   1.403       .  A
C1074      C1075   1.402   1_565  A
C1074      F1079   1.358       .  S
C1075      C1076   1.415       .  A
C1075      F1081   1.358       .  S
C1076      C1077   1.412       .  A
C1077      C1078   1.400       .  A
C1077      F1080   1.358       .  S
C1078      F1082   1.358       .  S
C1085      C1086   1.405       .  A
C1085      C1090   1.397       .  A
C1085      F1103   1.358       .  S
C1086      C1091   1.476       .  S
C1086      C1087   1.402       .  A
C1087      C1088   1.396       .  A
C1087      F1092   1.358       .  S
C1088      C1089   1.412       .  A
C1088      F1104   1.358       .  S
C1089      C1090   1.408       .  A
C1090      F1093   1.358       .  S
C1091      C1094   1.402       .  A
C1091      C1098   1.403       .  A
C1094      C1095   1.397       .  A
C1094      F1099   1.358       .  S
C1095      C1096   1.413       .  A
C1095      F1101   1.358       .  S
C1096      C1097   1.411       .  A
C1097      C1098   1.396       .  A
C1097      F1100   1.358       .  S
C1098      F1102   1.358       .  S
C1105      C1106   1.406       .  A
C1105      C1110   1.402       .  A
C1105      F1123   1.358       .  S
C1106      C1111   1.480       .  S
C1106      C1107   1.402       .  A
C1107      C1108   1.392       .  A
C1107      F1112   1.358       .  S
C1108      C1109   1.412       .  A
C1108      F1124   1.358       .  S
C1109      C1110   1.410       .  A
C1110      F1113   1.358       .  S
C1111      C1114   1.405       .  A
C1111      C1118   1.405       .  A
C1114      C1115   1.397       .  A
C1114      F1119   1.358       .  S
C1115      C1116   1.410       .  A
C1115      F1121   1.358       .  S
C1116      C1117   1.410       .  A
C1117      C1118   1.398       .  A
C1117      F1120   1.358       .  S
C1118      F1122   1.358       .  S
C1125      C1126   1.403       .  A
C1125      C1130   1.396       .  A
C1125      F1143   1.358   1_565  S
C1126      C1131   1.480       .  S
C1126      C1127   1.406       .  A
C1127      C1128   1.404       .  A
C1127      F1132   1.357       .  S
C1128      C1129   1.407       .  A
C1128      F1144   1.357       .  S
C1129      C1130   1.408       .  A
C1130      F1133   1.359       .  S
C1131      C1134   1.407   1_565  A
C1131      C1138   1.405       .  A
C1134      C1135   1.402       .  A
C1134      F1139   1.358       .  S
C1135      C1136   1.404       .  A
C1135      F1141   1.358       .  S
C1136      C1137   1.403   1_545  A
C1137      C1138   1.397       .  A
C1137      F1140   1.358       .  S
C1138      F1142   1.358       .  S
C1145      C1146   1.402       .  A
C1145      C1150   1.397       .  A
C1145      F1163   1.358   1_655  S
C1146      C1151   1.481   1_655  S
C1146      C1147   1.406       .  A
C1147      C1148   1.401       .  A
C1147      F1152   1.358       .  S
C1148      C1149   1.411       .  A
C1148      F1164   1.358       .  S
C1149      C1150   1.412       .  A
C1150      F1153   1.358       .  S
C1151      C1154   1.405       .  A
C1151      C1158   1.403       .  A
C1154      C1155   1.396       .  A
C1154      F1159   1.358       .  S
C1155      C1156   1.409       .  A
C1155      F1161   1.358       .  S
C1156      C1157   1.413       .  A
C1157      C1158   1.401       .  A
C1157      F1160   1.358       .  S
C1158      F1162   1.358   1_455  S
C1165      C1166   1.406       .  A
C1165      C1170   1.401       .  A
C1165      F1183   1.358       .  S
C1166      C1171   1.478       .  S
C1166      C1167   1.406       .  A
C1167      C1168   1.397       .  A
C1167      F1172   1.358       .  S
C1168      C1169   1.401       .  A
C1168      F1184   1.358       .  S
C1169      C1170   1.404       .  A
C1170      F1173   1.358       .  S
C1171      C1174   1.404       .  A
C1171      C1178   1.407       .  A
C1174      C1175   1.395       .  A
C1174      F1179   1.358       .  S
C1175      C1176   1.405       .  A
C1175      F1181   1.359       .  S
C1176      C1177   1.405       .  A
C1177      C1178   1.404       .  A
C1177      F1180   1.357       .  S
C1178      F1182   1.357       .  S
C1185      C1186   1.403       .  A
C1185      C1190   1.398       .  A
C1185      F1203   1.358       .  S
C1186      C1191   1.489       .  S
C1186      C1187   1.407       .  A
C1187      C1188   1.406       .  A
C1187      F1192   1.357       .  S
C1188      C1189   1.413   1_655  A
C1188      F1204   1.357   1_655  S
C1189      C1190   1.415   1_455  A
C1190      F1193   1.358   1_655  S
C1191      C1194   1.404       .  A
C1191      C1198   1.407       .  A
C1194      C1195   1.402       .  A
C1194      F1199   1.358       .  S
C1195      C1196   1.413       .  A
C1195      F1201   1.358       .  S
C1196      C1197   1.410       .  A
C1197      C1198   1.403       .  A
C1197      F1200   1.358       .  S
C1198      F1202   1.358       .  S
C1205      C1206   1.407       .  A
C1205      C1210   1.400       .  A
C1205      F1223   1.358       .  S
C1206      C1211   1.491       .  S
C1206      C1207   1.410       .  A
C1207      C1208   1.404       .  A
C1207      F1212   1.358       .  S
C1208      C1209   1.404   1_565  A
C1208      F1224   1.358       .  S
C1209      C1210   1.407   1_545  A
C1210      F1213   1.358   1_565  S
C1211      C1214   1.409       .  A
C1211      C1218   1.407       .  A
C1214      C1215   1.401       .  A
C1214      F1219   1.358       .  S
C1215      C1216   1.408       .  A
C1215      F1221   1.358       .  S
C1216      C1217   1.408       .  A
C1217      C1218   1.403       .  A
C1217      F1220   1.358       .  S
C1218      F1222   1.357       .  S
C1225      C1226   1.410       .  A
C1225      C1230   1.399       .  A
C1225      F1243   1.358       .  S
C1226      C1231   1.492       .  S
C1226      C1227   1.408       .  A
C1227      C1228   1.403       .  A
C1227      F1232   1.358       .  S
C1228      C1229   1.408       .  A
C1228      F1244   1.358       .  S
C1229      C1230   1.404       .  A
C1230      F1233   1.358       .  S
C1231      C1234   1.407       .  A
C1231      C1238   1.411       .  A
C1234      C1235   1.395       .  A
C1234      F1239   1.358       .  S
C1235      C1236   1.406   1_655  A
C1235      F1241   1.358   1_655  S
C1236      C1237   1.407   1_455  A
C1237      C1238   1.407       .  A
C1237      F1240   1.358       .  S
C1238      F1242   1.357       .  S
C1245      C1246   1.407       .  A
C1245      C1250   1.403       .  A
C1245      F1263   1.358       .  S
C1246      C1251   1.493       .  S
C1246      C1247   1.409       .  A
C1247      C1248   1.400       .  A
C1247      F1252   1.358       .  S
C1248      C1249   1.409       .  A
C1248      F1264   1.358       .  S
C1249      C1250   1.412       .  A
C1250      F1253   1.358       .  S
C1251      C1254   1.407       .  A
C1251      C1258   1.410       .  A
C1254      C1255   1.400       .  A
C1254      F1259   1.358       .  S
C1255      C1256   1.408       .  A
C1255      F1261   1.358   1_565  S
C1256      C1257   1.408       .  A
C1257      C1258   1.403       .  A
C1257      F1260   1.358       .  S
C1258      F1262   1.358       .  S
C1265      C1266   1.405       .  A
C1265      C1270   1.397       .  A
C1265      F1283   1.358       .  S
C1266      C1271   1.480       .  S
C1266      C1267   1.406       .  A
C1267      C1268   1.397       .  A
C1267      F1272   1.358       .  S
C1268      C1269   1.407       .  A
C1268      F1284   1.358       .  S
C1269      C1270   1.410       .  A
C1270      F1273   1.358       .  S
C1271      C1274   1.404       .  A
C1271      C1278   1.404       .  A
C1274      C1275   1.397       .  A
C1274      F1279   1.358       .  S
C1275      C1276   1.412       .  A
C1275      F1281   1.358       .  S
C1276      C1277   1.411       .  A
C1277      C1278   1.398       .  A
C1277      F1280   1.358       .  S
C1278      F1282   1.358       .  S
C1285      C1286   1.408       .  A
C1285      C1290   1.408       .  A
C1285      F1303   1.357       .  S
C1286      C1291   1.483   1_455  S
C1286      C1287   1.403   1_455  A
C1287      C1288   1.396   1_655  A
C1287      F1292   1.358       .  S
C1288      C1289   1.407       .  A
C1288      F1304   1.358   1_455  S
C1289      C1290   1.408       .  A
C1290      F1293   1.358       .  S
C1291      C1294   1.404   1_655  A
C1291      C1298   1.407       .  A
C1294      C1295   1.399       .  A
C1294      F1299   1.358       .  S
C1295      C1296   1.406   1_455  A
C1295      F1301   1.358       .  S
C1296      C1297   1.406       .  A
C1297      C1298   1.406       .  A
C1297      F1300   1.358       .  S
C1298      F1302   1.357       .  S
C1305      C1306   1.401       .  A
C1305      C1310   1.395       .  A
C1305      F1323   1.358       .  S
C1306      C1311   1.469       .  S
C1306      C1307   1.402       .  A
C1307      C1308   1.397       .  A
C1307      F1312   1.358       .  S
C1308      C1309   1.409       .  A
C1308      F1324   1.358       .  S
C1309      C1310   1.409       .  A
C1310      F1313   1.359       .  S
C1311      C1314   1.400       .  A
C1311      C1318   1.401       .  A
C1314      C1315   1.399       .  A
C1314      F1319   1.358       .  S
C1315      C1316   1.412       .  A
C1315      F1321   1.358       .  S
C1316      C1317   1.410       .  A
C1317      C1318   1.393       .  A
C1317      F1320   1.358       .  S
C1318      F1322   1.359       .  S
C1325      C1326   1.403       .  A
C1325      C1330   1.393       .  A
C1325      F1343   1.359       .  S
C1326      C1331   1.470       .  S
C1326      C1327   1.405       .  A
C1327      C1328   1.399       .  A
C1327      F1332   1.358       .  S
C1328      C1329   1.404       .  A
C1328      F1344   1.357       .  S
C1329      C1330   1.405       .  A
C1330      F1333   1.359       .  S
C1331      C1334   1.405       .  A
C1331      C1338   1.406       .  A
C1334      C1335   1.398       .  A
C1334      F1339   1.358       .  S
C1335      C1336   1.404       .  A
C1335      F1341   1.359       .  S
C1336      C1337   1.398       .  A
C1337      C1338   1.392       .  A
C1337      F1340   1.358       .  S
C1338      F1342   1.358       .  S
C1345      C1346   1.406       .  A
C1345      C1350   1.398       .  A
C1345      F1363   1.358       .  S
C1346      C1351   1.485   1_655  S
C1346      C1347   1.406   1_655  A
C1347      C1348   1.400   1_455  A
C1347      F1352   1.358       .  S
C1348      C1349   1.410       .  A
C1348      F1364   1.358       .  S
C1349      C1350   1.409       .  A
C1350      F1353   1.358       .  S
C1351      C1354   1.405       .  A
C1351      C1358   1.405       .  A
C1354      C1355   1.402       .  A
C1354      F1359   1.358   1_455  S
C1355      C1356   1.412       .  A
C1355      F1361   1.358       .  S
C1356      C1357   1.411       .  A
C1357      C1358   1.397       .  A
C1357      F1360   1.358       .  S
C1358      F1362   1.358       .  S
C1365      C1366   1.405       .  A
C1365      C1370   1.397   1_455  A
C1365      F1383   1.358       .  S
C1366      C1371   1.484       .  S
C1366      C1367   1.408       .  A
C1367      C1368   1.402       .  A
C1367      F1372   1.358       .  S
C1368      C1369   1.406   1_455  A
C1368      F1384   1.358       .  S
C1369      C1370   1.407       .  A
C1370      F1373   1.358       .  S
C1371      C1374   1.408       .  A
C1371      C1378   1.407       .  A
C1374      C1375   1.396       .  A
C1374      F1379   1.358       .  S
C1375      C1376   1.405       .  A
C1375      F1381   1.359       .  S
C1376      C1377   1.405       .  A
C1377      C1378   1.400       .  A
C1377      F1380   1.358       .  S
C1378      F1382   1.357       .  S
C1385      C1386   1.411       .  A
C1385      C1390   1.405       .  A
C1385      F1403   1.358       .  S
C1386      C1391   1.497       .  S
C1386      C1387   1.409       .  A
C1387      C1388   1.401   1_545  A
C1387      F1392   1.358       .  S
C1388      C1389   1.406       .  A
C1388      F1404   1.358       .  S
C1389      C1390   1.408   1_565  A
C1390      F1393   1.358       .  S
C1391      C1394   1.410       .  A
C1391      C1398   1.409       .  A
C1394      C1395   1.407       .  A
C1394      F1399   1.358       .  S
C1395      C1396   1.409       .  A
C1395      F1401   1.358       .  S
C1396      C1397   1.406       .  A
C1397      C1398   1.400       .  A
C1397      F1400   1.358       .  S
C1398      F1402   1.358       .  S
C1405      C1406   1.403       .  A
C1405      C1410   1.397       .  A
C1405      F1423   1.358       .  S
C1406      C1411   1.476       .  S
C1406      C1407   1.405       .  A
C1407      C1408   1.398       .  A
C1407      F1412   1.358       .  S
C1408      C1409   1.409       .  A
C1408      F1424   1.358       .  S
C1409      C1410   1.409       .  A
C1410      F1413   1.358   1_455  S
C1411      C1414   1.402       .  A
C1411      C1418   1.403       .  A
C1414      C1415   1.400       .  A
C1414      F1419   1.358       .  S
C1415      C1416   1.413       .  A
C1415      F1421   1.358       .  S
C1416      C1417   1.412       .  A
C1417      C1418   1.395       .  A
C1417      F1420   1.358       .  S
C1418      F1422   1.359       .  S
C1425      C1426   1.409       .  A
C1425      C1430   1.399       .  A
C1425      F1443   1.358       .  S
C1426      C1431   1.494       .  S
C1426      C1427   1.407       .  A
C1427      C1428   1.402       .  A
C1427      F1432   1.358       .  S
C1428      C1429   1.412       .  A
C1428      F1444   1.358       .  S
C1429      C1430   1.410       .  A
C1430      F1433   1.358       .  S
C1431      C1434   1.410       .  A
C1431      C1438   1.408       .  A
C1434      C1435   1.401       .  A
C1434      F1439   1.358       .  S
C1435      C1436   1.407   1_545  A
C1435      F1441   1.358       .  S
C1436      C1437   1.409       .  A
C1437      C1438   1.401   1_565  A
C1437      F1440   1.358       .  S
C1438      F1442   1.358       .  S
C1445      C1446   1.404       .  A
C1445      C1450   1.394       .  A
C1445      F1463   1.358       .  S
C1446      C1451   1.472       .  S
C1446      C1447   1.404       .  A
C1447      C1448   1.395       .  A
C1447      F1452   1.358       .  S
C1448      C1449   1.406       .  A
C1448      F1464   1.358       .  S
C1449      C1450   1.405       .  A
C1450      F1453   1.358       .  S
C1451      C1454   1.402       .  A
C1451      C1458   1.403       .  A
C1454      C1455   1.393       .  A
C1454      F1459   1.358       .  S
C1455      C1456   1.411       .  A
C1455      F1461   1.358       .  S
C1456      C1457   1.409       .  A
C1457      C1458   1.395       .  A
C1457      F1460   1.358       .  S
C1458      F1462   1.358       .  S
C1465      C1466   1.408       .  A
C1465      C1470   1.400       .  A
C1465      F1483   1.358       .  S
C1466      C1471   1.486       .  S
C1466      C1467   1.408   1_455  A
C1467      C1468   1.402   1_655  A
C1467      F1472   1.358       .  S
C1468      C1469   1.403       .  A
C1468      F1484   1.358   1_455  S
C1469      C1470   1.403       .  A
C1470      F1473   1.358       .  S
C1471      C1474   1.406       .  A
C1471      C1478   1.408   1_455  A
C1474      C1475   1.395   1_455  A
C1474      F1479   1.358       .  S
C1475      C1476   1.406       .  A
C1475      F1481   1.358   1_655  S
C1476      C1477   1.410       .  A
C1477      C1478   1.406       .  A
C1477      F1480   1.358       .  S
C1478      F1482   1.358       .  S
C1485      C1486   1.405       .  A
C1485      C1490   1.397       .  A
C1485      F1503   1.358       .  S
C1486      C1491   1.475       .  S
C1486      C1487   1.403       .  A
C1487      C1488   1.396       .  A
C1487      F1492   1.358       .  S
C1488      C1489   1.409       .  A
C1488      F1504   1.358       .  S
C1489      C1490   1.407       .  A
C1490      F1493   1.358       .  S
C1491      C1494   1.401       .  A
C1491      C1498   1.404       .  A
C1494      C1495   1.391       .  A
C1494      F1499   1.359       .  S
C1495      C1496   1.412       .  A
C1495      F1501   1.358       .  S
C1496      C1497   1.411       .  A
C1497      C1498   1.401       .  A
C1497      F1500   1.358       .  S
C1498      F1502   1.358       .  S
C1505      C1506   1.403       .  A
C1505      C1510   1.396       .  A
C1505      F1523   1.358       .  S
C1506      C1511   1.479       .  S
C1506      C1507   1.407       .  A
C1507      C1508   1.405       .  A
C1507      F1512   1.357       .  S
C1508      C1509   1.406       .  A
C1508      F1524   1.358       .  S
C1509      C1510   1.406       .  A
C1510      F1513   1.358       .  S
C1511      C1514   1.404       .  A
C1511      C1518   1.401       .  A
C1514      C1515   1.404       .  A
C1514      F1519   1.357       .  S
C1515      C1516   1.412       .  A
C1515      F1521   1.357       .  S
C1516      C1517   1.415       .  A
C1517      C1518   1.396       .  A
C1517      F1520   1.358       .  S
C1518      F1522   1.358       .  S
C1525      C1526   1.404       .  A
C1525      C1530   1.395       .  A
C1525      F1543   1.358       .  S
C1526      C1531   1.481       .  S
C1526      C1527   1.405       .  A
C1527      C1528   1.404       .  A
C1527      F1532   1.357       .  S
C1528      C1529   1.409       .  A
C1528      F1544   1.357       .  S
C1529      C1530   1.410       .  A
C1530      F1533   1.359       .  S
C1531      C1534   1.406       .  A
C1531      C1538   1.400       .  A
C1534      C1535   1.409       .  A
C1534      F1539   1.357       .  S
C1535      C1536   1.412       .  A
C1535      F1541   1.357       .  S
C1536      C1537   1.416       .  A
C1537      C1538   1.390       .  A
C1537      F1540   1.358       .  S
C1538      F1542   1.359       .  S
C1545      C1546   1.401       .  A
C1545      C1550   1.395       .  A
C1545      F1563   1.358       .  S
C1546      C1551   1.468       .  S
C1546      C1547   1.400       .  A
C1547      C1548   1.395       .  A
C1547      F1552   1.358       .  S
C1548      C1549   1.411       .  A
C1548      F1564   1.358       .  S
C1549      C1550   1.410       .  A
C1550      F1553   1.358       .  S
C1551      C1554   1.401       .  A
C1551      C1558   1.401       .  A
C1554      C1555   1.395       .  A
C1554      F1559   1.358       .  S
C1555      C1556   1.411       .  A
C1555      F1561   1.358       .  S
C1556      C1557   1.409       .  A
C1557      C1558   1.395       .  A
C1557      F1560   1.358       .  S
C1558      F1562   1.358       .  S
C1565      C1566   1.405       .  A
C1565      C1570   1.398       .  A
C1565      F1583   1.358       .  S
C1566      C1571   1.487       .  S
C1566      C1567   1.409       .  A
C1567      C1568   1.403       .  A
C1567      F1572   1.358       .  S
C1568      C1569   1.407       .  A
C1568      F1584   1.358       .  S
C1569      C1570   1.409       .  A
C1570      F1573   1.358       .  S
C1571      C1574   1.411       .  A
C1571      C1578   1.404       .  A
C1574      C1575   1.406       .  A
C1574      F1579   1.358       .  S
C1575      C1576   1.405       .  A
C1575      F1581   1.358       .  S
C1576      C1577   1.407       .  A
C1577      C1578   1.394       .  A
C1577      F1580   1.359       .  S
C1578      F1582   1.358       .  S
C1585      C1586   1.405       .  A
C1585      C1590   1.400       .  A
C1585      F1603   1.358       .  S
C1586      C1591   1.489       .  S
C1586      C1587   1.407       .  A
C1587      C1588   1.402       .  A
C1587      F1592   1.358       .  S
C1588      C1589   1.411       .  A
C1588      F1604   1.358       .  S
C1589      C1590   1.412       .  A
C1590      F1593   1.358       .  S
C1591      C1594   1.406       .  A
C1591      C1598   1.409       .  A
C1594      C1595   1.396       .  A
C1594      F1599   1.358       .  S
C1595      C1596   1.408       .  A
C1595      F1601   1.358       .  S
C1596      C1597   1.408       .  A
C1597      C1598   1.406       .  A
C1597      F1600   1.358       .  S
C1598      F1602   1.358       .  S
C1605      C1606   1.402       .  A
C1605      C1610   1.398       .  A
C1605      F1623   1.358       .  S
C1606      C1611   1.482       .  S
C1606      C1607   1.405       .  A
C1607      C1608   1.406       .  A
C1607      F1612   1.357       .  S
C1608      C1609   1.409       .  A
C1608      F1624   1.357       .  S
C1609      C1610   1.411       .  A
C1610      F1613   1.358       .  S
C1611      C1614   1.405       .  A
C1611      C1618   1.401       .  A
C1614      C1615   1.406       .  A
C1614      F1619   1.357       .  S
C1615      C1616   1.412       .  A
C1615      F1621   1.358       .  S
C1616      C1617   1.411       .  A
C1617      C1618   1.397       .  A
C1617      F1620   1.358       .  S
C1618      F1622   1.358       .  S
C1625      C1626   1.403       .  A
C1625      C1630   1.397       .  A
C1625      F1643   1.358       .  S
C1626      C1631   1.483       .  S
C1626      C1627   1.406       .  A
C1627      C1628   1.402       .  A
C1627      F1632   1.358       .  S
C1628      C1629   1.409       .  A
C1628      F1644   1.358       .  S
C1629      C1630   1.411       .  A
C1630      F1633   1.358       .  S
C1631      C1634   1.404       .  A
C1631      C1638   1.404       .  A
C1634      C1635   1.403       .  A
C1634      F1639   1.358       .  S
C1635      C1636   1.413       .  A
C1635      F1641   1.357       .  S
C1636      C1637   1.412       .  A
C1637      C1638   1.396       .  A
C1637      F1640   1.358       .  S
C1638      F1642   1.358       .  S
C1645      C1646   1.403       .  A
C1645      C1650   1.396       .  A
C1645      F1663   1.358       .  S
C1646      C1651   1.477       .  S
C1646      C1647   1.403       .  A
C1647      C1648   1.397       .  A
C1647      F1652   1.358       .  S
C1648      C1649   1.414       .  A
C1648      F1664   1.358       .  S
C1649      C1650   1.409       .  A
C1650      F1653   1.358       .  S
C1651      C1654   1.403       .  A
C1651      C1658   1.405       .  A
C1654      C1655   1.395       .  A
C1654      F1659   1.358       .  S
C1655      C1656   1.410       .  A
C1655      F1661   1.358       .  S
C1656      C1657   1.407       .  A
C1657      C1658   1.399       .  A
C1657      F1660   1.358       .  S
C1658      F1662   1.358       .  S
C1665      C1666   1.406       .  A
C1665      C1670   1.399       .  A
C1665      F1683   1.358       .  S
C1666      C1671   1.490       .  S
C1666      C1667   1.407       .  A
C1667      C1668   1.406       .  A
C1667      F1672   1.357       .  S
C1668      C1669   1.409       .  A
C1668      F1684   1.357       .  S
C1669      C1670   1.411       .  A
C1670      F1673   1.358       .  S
C1671      C1674   1.408       .  A
C1671      C1678   1.406       .  A
C1674      C1675   1.406       .  A
C1674      F1679   1.358       .  S
C1675      C1676   1.407       .  A
C1675      F1681   1.358       .  S
C1676      C1677   1.407       .  A
C1677      C1678   1.400       .  A
C1677      F1680   1.358       .  S
C1678      F1682   1.358       .  S
C1685      C1686   1.408       .  A
C1685      C1690   1.400       .  A
C1685      F1703   1.358       .  S
C1686      C1691   1.488       .  S
C1686      C1687   1.409       .  A
C1687      C1688   1.401       .  A
C1687      F1692   1.358       .  S
C1688      C1689   1.403       .  A
C1688      F1704   1.358       .  S
C1689      C1690   1.403       .  A
C1690      F1693   1.358       .  S
C1691      C1694   1.406       .  A
C1691      C1698   1.406       .  A
C1694      C1695   1.397       .  A
C1694      F1699   1.358       .  S
C1695      C1696   1.410       .  A
C1695      F1701   1.358       .  S
C1696      C1697   1.412       .  A
C1697      C1698   1.403       .  A
C1697      F1700   1.358       .  S
C1698      F1702   1.358       .  S
C1705      C1706   1.407       .  A
C1705      C1710   1.408       .  A
C1705      F1723   1.357       .  S
C1706      C1711   1.486       .  S
C1706      C1707   1.402       .  A
C1707      C1708   1.398       .  A
C1707      F1712   1.358       .  S
C1708      C1709   1.412       .  A
C1708      F1724   1.358       .  S
C1709      C1710   1.412       .  A
C1710      F1713   1.358       .  S
C1711      C1714   1.403       .  A
C1711      C1718   1.407       .  A
C1714      C1715   1.400       .  A
C1714      F1719   1.358       .  S
C1715      C1716   1.412       .  A
C1715      F1721   1.358       .  S
C1716      C1717   1.407       .  A
C1717      C1718   1.407       .  A
C1717      F1720   1.357       .  S
C1718      F1722   1.357       .  S
C1725      C1726   1.410       .  A
C1725      C1730   1.400       .  A
C1725      F1743   1.358       .  S
C1726      C1731   1.485       .  S
C1726      C1727   1.406       .  A
C1727      C1728   1.397       .  A
C1727      F1732   1.358       .  S
C1728      C1729   1.405       .  A
C1728      F1744   1.358       .  S
C1729      C1730   1.403       .  A
C1730      F1733   1.358       .  S
C1731      C1734   1.405       .  A
C1731      C1738   1.409       .  A
C1734      C1735   1.394       .  A
C1734      F1739   1.359       .  S
C1735      C1736   1.410       .  A
C1735      F1741   1.358       .  S
C1736      C1737   1.407       .  A
C1737      C1738   1.404       .  A
C1737      F1740   1.357       .  S
C1738      F1742   1.358       .  S
C1745      C1746   1.402       .  A
C1745      C1750   1.393       .  A
C1745      F1763   1.358       .  S
C1746      C1751   1.474       .  S
C1746      C1747   1.403       .  A
C1747      C1748   1.395       .  A
C1747      F1752   1.358       .  S
C1748      C1749   1.410       .  A
C1748      F1764   1.358       .  S
C1749      C1750   1.412       .  A
C1750      F1753   1.358       .  S
C1751      C1754   1.403       .  A
C1751      C1758   1.403       .  A
C1754      C1755   1.395       .  A
C1754      F1759   1.358       .  S
C1755      C1756   1.409       .  A
C1755      F1761   1.358       .  S
C1756      C1757   1.410       .  A
C1757      C1758   1.395       .  A
C1757      F1760   1.358       .  S
C1758      F1762   1.358       .  S
C1765      C1766   1.407       .  A
C1765      C1770   1.401       .  A
C1765      F1783   1.358       .  S
C1766      C1771   1.486       .  S
C1766      C1767   1.406       .  A
C1767      C1768   1.400       .  A
C1767      F1772   1.358       .  S
C1768      C1769   1.407       .  A
C1768      F1784   1.358       .  S
C1769      C1770   1.409       .  A
C1770      F1773   1.358       .  S
C1771      C1774   1.404       .  A
C1771      C1778   1.409       .  A
C1774      C1775   1.396       .  A
C1774      F1779   1.358       .  S
C1775      C1776   1.408       .  A
C1775      F1781   1.359       .  S
C1776      C1777   1.406       .  A
C1777      C1778   1.406       .  A
C1777      F1780   1.357       .  S
C1778      F1782   1.357       .  S
C1785      C1786   1.411       .  A
C1785      C1790   1.401       .  A
C1785      F1803   1.358       .  S
C1786      C1791   1.492       .  S
C1786      C1787   1.408       .  A
C1787      C1788   1.399       .  A
C1787      F1792   1.358       .  S
C1788      C1789   1.406       .  A
C1788      F1804   1.358       .  S
C1789      C1790   1.403       .  A
C1790      F1793   1.358       .  S
C1791      C1794   1.408       .  A
C1791      C1798   1.410       .  A
C1794      C1795   1.400       .  A
C1794      F1799   1.358       .  S
C1795      C1796   1.406       .  A
C1795      F1801   1.358       .  S
C1796      C1797   1.407       .  A
C1797      C1798   1.400       .  A
C1797      F1800   1.358       .  S
C1798      F1802   1.358       .  S
C1805      C1806   1.410       .  A
C1805      C1810   1.401       .  A
C1805      F1823   1.358       .  S
C1806      C1811   1.494       .  S
C1806      C1807   1.409       .  A
C1807      C1808   1.403       .  A
C1807      F1812   1.358       .  S
C1808      C1809   1.407       .  A
C1808      F1824   1.358       .  S
C1809      C1810   1.404       .  A
C1810      F1813   1.358       .  S
C1811      C1814   1.408       .  A
C1811      C1818   1.409       .  A
C1814      C1815   1.398       .  A
C1814      F1819   1.358       .  S
C1815      C1816   1.408       .  A
C1815      F1821   1.358       .  S
C1816      C1817   1.410       .  A
C1817      C1818   1.406       .  A
C1817      F1820   1.358       .  S
C1818      F1822   1.358       .  S
C1825      C1826   1.403       .  A
C1825      C1830   1.397       .  A
C1825      F1843   1.358       .  S
C1826      C1831   1.486       .  S
C1826      C1827   1.408       .  A
C1827      C1828   1.408       .  A
C1827      F1832   1.357       .  S
C1828      C1829   1.409       .  A
C1828      F1844   1.357       .  S
C1829      C1830   1.410       .  A
C1830      F1833   1.358       .  S
C1831      C1834   1.407       .  A
C1831      C1838   1.404       .  A
C1834      C1835   1.405       .  A
C1834      F1839   1.357       .  S
C1835      C1836   1.408       .  A
C1835      F1841   1.358       .  S
C1836      C1837   1.410       .  A
C1837      C1838   1.400       .  A
C1837      F1840   1.358       .  S
C1838      F1842   1.358       .  S
C1845      C1846   1.405       .  A
C1845      C1850   1.402       .  A
C1845      F1863   1.358       .  S
C1846      C1851   1.480       .  S
C1846      C1847   1.403       .  A
C1847      C1848   1.399       .  A
C1847      F1852   1.358       .  S
C1848      C1849   1.410       .  A
C1848      F1864   1.358       .  S
C1849      C1850   1.410       .  A
C1850      F1853   1.358       .  S
C1851      C1854   1.402       .  A
C1851      C1858   1.404       .  A
C1854      C1855   1.396       .  A
C1854      F1859   1.358       .  S
C1855      C1856   1.413       .  A
C1855      F1861   1.358       .  S
C1856      C1857   1.413       .  A
C1857      C1858   1.404       .  A
C1857      F1860   1.358       .  S
C1858      F1862   1.357       .  S
C1865      C1866   1.405       .  A
C1865      C1870   1.397       .  A
C1865      F1883   1.358       .  S
C1866      C1871   1.486       .  S
C1866      C1867   1.406       .  A
C1867      C1868   1.403       .  A
C1867      F1872   1.358       .  S
C1868      C1869   1.412       .  A
C1868      F1884   1.358       .  S
C1869      C1870   1.411       .  A
C1870      F1873   1.358       .  S
C1871      C1874   1.406       .  A
C1871      C1878   1.406       .  A
C1874      C1875   1.400       .  A
C1874      F1879   1.358       .  S
C1875      C1876   1.409       .  A
C1875      F1881   1.358       .  S
C1876      C1877   1.408       .  A
C1877      C1878   1.400       .  A
C1877      F1880   1.358       .  S
C1878      F1882   1.358       .  S
C1885      C1886   1.407       .  A
C1885      C1890   1.400       .  A
C1885      F1903   1.358       .  S
C1886      C1891   1.489       .  S
C1886      C1887   1.407       .  A
C1887      C1888   1.400       .  A
C1887      F1892   1.358       .  S
C1888      C1889   1.408       .  A
C1888      F1904   1.358       .  S
C1889      C1890   1.408       .  A
C1890      F1893   1.358       .  S
C1891      C1894   1.406       .  A
C1891      C1898   1.406       .  A
C1894      C1895   1.400       .  A
C1894      F1899   1.358       .  S
C1895      C1896   1.411       .  A
C1895      F1901   1.358       .  S
C1896      C1897   1.413       .  A
C1897      C1898   1.402       .  A
C1897      F1900   1.358       .  S
C1898      F1902   1.358       .  S
C1905      C1906   1.410       .  A
C1905      C1910   1.407       .  A
C1905      F1923   1.358       .  S
C1906      C1911   1.491       .  S
C1906      C1907   1.406       .  A
C1907      C1908   1.397       .  A
C1907      F1912   1.358       .  S
C1908      C1909   1.408       .  A
C1908      F1924   1.358       .  S
C1909      C1910   1.408       .  A
C1910      F1913   1.358       .  S
C1911      C1914   1.406       .  A
C1911      C1918   1.410       .  A
C1914      C1915   1.399       .  A
C1914      F1919   1.358       .  S
C1915      C1916   1.406       .  A
C1915      F1921   1.358       .  S
C1916      C1917   1.407       .  A
C1917      C1918   1.405       .  A
C1917      F1920   1.358       .  S
C1918      F1922   1.358       .  S
C1925      C1926   1.408       .  A
C1925      C1930   1.402       .  A
C1925      F1943   1.358       .  S
C1926      C1931   1.485       .  S
C1926      C1927   1.405       .  A
C1927      C1928   1.395       .  A
C1927      F1932   1.358       .  S
C1928      C1929   1.409       .  A
C1928      F1944   1.359       .  S
C1929      C1930   1.408       .  A
C1930      F1933   1.358       .  S
C1931      C1934   1.406       .  A
C1931      C1938   1.406       .  A
C1934      C1935   1.397       .  A
C1934      F1939   1.358       .  S
C1935      C1936   1.409       .  A
C1935      F1941   1.358       .  S
C1936      C1937   1.412       .  A
C1937      C1938   1.402       .  A
C1937      F1940   1.358       .  S
C1938      F1942   1.358       .  S
C1945      C1946   1.403       .  A
C1945      C1950   1.395       .  A
C1945      F1963   1.358       .  S
C1946      C1951   1.475       .  S
C1946      C1947   1.405       .  A
C1947      C1948   1.403       .  A
C1947      F1952   1.357       .  S
C1948      C1949   1.406       .  A
C1948      F1964   1.358       .  S
C1949      C1950   1.406       .  A
C1950      F1953   1.358       .  S
C1951      C1954   1.406       .  A
C1951      C1958   1.404       .  A
C1954      C1955   1.402       .  A
C1954      F1959   1.357       .  S
C1955      C1956   1.404       .  A
C1955      F1961   1.358       .  S
C1956      C1957   1.402       .  A
C1957      C1958   1.395       .  A
C1957      F1960   1.358       .  S
C1958      F1962   1.358       .  S
C1965      C1966   1.410       .  A
C1965      C1970   1.405       .  A
C1965      F1983   1.358       .  S
C1966      C1971   1.491       .  S
C1966      C1967   1.406       .  A
C1967      C1968   1.399       .  A
C1967      F1972   1.358       .  S
C1968      C1969   1.407       .  A
C1968      F1984   1.358       .  S
C1969      C1970   1.406       .  A
C1970      F1973   1.358       .  S
C1971      C1974   1.405       .  A
C1971      C1978   1.409       .  A
C1974      C1975   1.398       .  A
C1974      F1979   1.358       .  S
C1975      C1976   1.409       .  A
C1975      F1981   1.358       .  S
C1976      C1977   1.409       .  A
C1977      C1978   1.406       .  A
C1977      F1980   1.358       .  S
C1978      F1982   1.358       .  S
C1985      C1986   1.406       .  A
C1985      C1990   1.395       .  A
C1985      F2003   1.358       .  S
C1986      C1991   1.481   1_556  S
C1986      C1987   1.407       .  A
C1987      C1988   1.400       .  A
C1987      F1992   1.358       .  S
C1988      C1989   1.407       .  A
C1988      F2004   1.358       .  S
C1989      C1990   1.405       .  A
C1990      F1993   1.358       .  S
C1991      C1994   1.408       .  A
C1991      C1998   1.407       .  A
C1994      C1995   1.397       .  A
C1994      F1999   1.358       .  S
C1995      C1996   1.402       .  A
C1995      F2001   1.358       .  S
C1996      C1997   1.405       .  A
C1997      C1998   1.398       .  A
C1997      F2000   1.358       .  S
C1998      F2002   1.358       .  S
C2005      C2006   1.404       .  A
C2005      C2010   1.395       .  A
C2005      F2023   1.358       .  S
C2006      C2011   1.477       .  S
C2006      C2007   1.405       .  A
C2007      C2008   1.403       .  A
C2007      F2012   1.357       .  S
C2008      C2009   1.407       .  A
C2008      F2024   1.358       .  S
C2009      C2010   1.406       .  A
C2010      F2013   1.359       .  S
C2011      C2014   1.406       .  A
C2011      C2018   1.404       .  A
C2014      C2015   1.401       .  A
C2014      F2019   1.357       .  S
C2015      C2016   1.404       .  A
C2015      F2021   1.358       .  S
C2016      C2017   1.405       .  A
C2017      C2018   1.398       .  A
C2017      F2020   1.359       .  S
C2018      F2022   1.358       .  S
C2025      C2026   1.402       .  A
C2025      C2030   1.399       .  A
C2025      F2043   1.358       .  S
C2026      C2031   1.474       .  S
C2026      C2027   1.402       .  A
C2027      C2028   1.393       .  A
C2027      F2032   1.359       .  S
C2028      C2029   1.411       .  A
C2028      F2044   1.358       .  S
C2029      C2030   1.413       .  A
C2030      F2033   1.358       .  S
C2031      C2034   1.403       .  A
C2031      C2038   1.402       .  A
C2034      C2035   1.395       .  A
C2034      F2039   1.358       .  S
C2035      C2036   1.410       .  A
C2035      F2041   1.358       .  S
C2036      C2037   1.412       .  A
C2037      C2038   1.397       .  A
C2037      F2040   1.358       .  S
C2038      F2042   1.358       .  S
C2045      C2046   1.404       .  A
C2045      C2050   1.403       .  A
C2045      F2063   1.357       .  S
C2046      C2051   1.484       .  S
C2046      C2047   1.403       .  A
C2047      C2048   1.399       .  A
C2047      F2052   1.358       .  S
C2048      C2049   1.415       .  A
C2048      F2064   1.358       .  S
C2049      C2050   1.411       .  A
C2050      F2053   1.357       .  S
C2051      C2054   1.405       .  A
C2051      C2058   1.408       .  A
C2054      C2055   1.399       .  A
C2054      F2059   1.358       .  S
C2055      C2056   1.405       .  A
C2055      F2061   1.358       .  S
C2056      C2057   1.405       .  A
C2057      C2058   1.404       .  A
C2057      F2060   1.358       .  S
C2058      F2062   1.358       .  S
C2065      C2066   1.406       .  A
C2065      C2070   1.402       .  A
C2065      F2083   1.357       .  S
C2066      C2071   1.477       .  S
C2066      C2067   1.405       .  A
C2067      C2068   1.397       .  A
C2067      F2072   1.358       .  S
C2068      C2069   1.404       .  A
C2068      F2084   1.359       .  S
C2069      C2070   1.404       .  A
C2070      F2073   1.358       .  S
C2071      C2074   1.404       .  A
C2071      C2078   1.406       .  A
C2074      C2075   1.394       .  A
C2074      F2079   1.358       .  S
C2075      C2076   1.404       .  A
C2075      F2081   1.359       .  S
C2076      C2077   1.405       .  A
C2077      C2078   1.404       .  A
C2077      F2080   1.358       .  S
C2078      F2082   1.357       .  S
C2085      C2086   1.403       .  A
C2085      C2090   1.397       .  A
C2085      F2103   1.358       .  S
C2086      C2091   1.480       .  S
C2086      C2087   1.405       .  A
C2087      C2088   1.401       .  A
C2087      F2092   1.358       .  S
C2088      C2089   1.409       .  A
C2088      F2104   1.358       .  S
C2089      C2090   1.410       .  A
C2090      F2093   1.358       .  S
C2091      C2094   1.404       .  A
C2091      C2098   1.402       .  A
C2094      C2095   1.396       .  A
C2094      F2099   1.358       .  S
C2095      C2096   1.410       .  A
C2095      F2101   1.358       .  S
C2096      C2097   1.415       .  A
C2097      C2098   1.401       .  A
C2097      F2100   1.358       .  S
C2098      F2102   1.358       .  S
C2105      C2106   1.404       .  A
C2105      C2110   1.401       .  A
C2105      F2123   1.358       .  S
C2106      C2111   1.491       .  S
C2106      C2107   1.407       .  A
C2107      C2108   1.404       .  A
C2107      F2112   1.358       .  S
C2108      C2109   1.412       .  A
C2108      F2124   1.358       .  S
C2109      C2110   1.413       .  A
C2110      F2113   1.358       .  S
C2111      C2114   1.403       .  A
C2111      C2118   1.407       .  A
C2114      C2115   1.400       .  A
C2114      F2119   1.358       .  S
C2115      C2116   1.417       .  A
C2115      F2121   1.358       .  S
C2116      C2117   1.411       .  A
C2117      C2118   1.406       .  A
C2117      F2120   1.357       .  S
C2118      F2122   1.357       .  S
C2125      C2126   1.400       .  A
C2125      C2130   1.393       .  A
C2125      F2143   1.359       .  S
C2126      C2131   1.481       .  S
C2126      C2127   1.406       .  A
C2127      C2128   1.409       .  A
C2127      F2132   1.357       .  S
C2128      C2129   1.412       .  A
C2128      F2144   1.357       .  S
C2129      C2130   1.412       .  A
C2130      F2133   1.358       .  S
C2131      C2134   1.406       .  A
C2131      C2138   1.403       .  A
C2134      C2135   1.402       .  A
C2134      F2139   1.357       .  S
C2135      C2136   1.406       .  A
C2135      F2141   1.358       .  S
C2136      C2137   1.410       .  A
C2137      C2138   1.400       .  A
C2137      F2140   1.359       .  S
C2138      F2142   1.358       .  S
C2145      C2146   1.404       .  A
C2145      C2150   1.400       .  A
C2145      F2163   1.358       .  S
C2146      C2151   1.482       .  S
C2146      C2147   1.405       .  A
C2147      C2148   1.399       .  A
C2147      F2152   1.358       .  S
C2148      C2149   1.410       .  A
C2148      F2164   1.358       .  S
C2149      C2150   1.410       .  A
C2150      F2153   1.358       .  S
C2151      C2154   1.404       .  A
C2151      C2158   1.404       .  A
C2154      C2155   1.400       .  A
C2154      F2159   1.358       .  S
C2155      C2156   1.411       .  A
C2155      F2161   1.358       .  S
C2156      C2157   1.413       .  A
C2157      C2158   1.398       .  A
C2157      F2160   1.358       .  S
C2158      F2162   1.358       .  S
C2165      C2166   1.409       .  A
C2165      C2170   1.403       .  A
C2165      F2183   1.358       .  S
C2166      C2171   1.494   1_554  S
C2166      C2167   1.410       .  A
C2167      C2168   1.401       .  A
C2167      F2172   1.358       .  S
C2168      C2169   1.404       .  A
C2168      F2184   1.358       .  S
C2169      C2170   1.408       .  A
C2170      F2173   1.358       .  S
C2171      C2174   1.410       .  A
C2171      C2178   1.408       .  A
C2174      C2175   1.404       .  A
C2174      F2179   1.358       .  S
C2175      C2176   1.407       .  A
C2175      F2181   1.358       .  S
C2176      C2177   1.407       .  A
C2177      C2178   1.400       .  A
C2177      F2180   1.358       .  S
C2178      F2182   1.358       .  S
C2185      C2186   1.401       .  A
C2185      C2190   1.392       .  A
C2185      F2203   1.359       .  S
C2186      C2191   1.477       .  S
C2186      C2187   1.405       .  A
C2187      C2188   1.402       .  A
C2187      F2192   1.358       .  S
C2188      C2189   1.411       .  A
C2188      F2204   1.358       .  S
C2189      C2190   1.413       .  A
C2190      F2193   1.358       .  S
C2191      C2194   1.405       .  A
C2191      C2198   1.404       .  A
C2194      C2195   1.399       .  A
C2194      F2199   1.358       .  S
C2195      C2196   1.410       .  A
C2195      F2201   1.358       .  S
C2196      C2197   1.408       .  A
C2197      C2198   1.396       .  A
C2197      F2200   1.358       .  S
C2198      F2202   1.358       .  S
C2205      C2206   1.403       .  A
C2205      C2210   1.402       .  A
C2205      F2223   1.357       .  S
C2206      C2211   1.468       .  S
C2206      C2207   1.401       .  A
C2207      C2208   1.391       .  A
C2207      F2212   1.359       .  S
C2208      C2209   1.406       .  A
C2208      F2224   1.359       .  S
C2209      C2210   1.407       .  A
C2210      F2213   1.358       .  S
C2211      C2214   1.402       .  A
C2211      C2218   1.403       .  A
C2214      C2215   1.392       .  A
C2214      F2219   1.358       .  S
C2215      C2216   1.405       .  A
C2215      F2221   1.359       .  S
C2216      C2217   1.405       .  A
C2217      C2218   1.400       .  A
C2217      F2220   1.358       .  S
C2218      F2222   1.357       .  S
C2225      C2226   1.403       .  A
C2225      C2230   1.398       .  A
C2225      F2243   1.358       .  S
C2226      C2231   1.493       .  S
C2226      C2227   1.410       .  A
C2227      C2228   1.411       .  A
C2227      F2232   1.357       .  S
C2228      C2229   1.410       .  A
C2228      F2244   1.357       .  S
C2229      C2230   1.413       .  A
C2230      F2233   1.359       .  S
C2231      C2234   1.408       .  A
C2231      C2238   1.405       .  A
C2234      C2235   1.407       .  A
C2234      F2239   1.358       .  S
C2235      C2236   1.408       .  A
C2235      F2241   1.358       .  S
C2236      C2237   1.411       .  A
C2237      C2238   1.404       .  A
C2237      F2240   1.358       .  S
C2238      F2242   1.358       .  S
C2245      C2246   1.402       .  A
C2245      C2250   1.400       .  A
C2245      F2263   1.357       .  S
C2246      C2251   1.463       .  S
C2246      C2247   1.401       .  A
C2247      C2248   1.389       .  A
C2247      F2252   1.359       .  S
C2248      C2249   1.404       .  A
C2248      F2264   1.359       .  S
C2249      C2250   1.406       .  A
C2250      F2253   1.358       .  S
C2251      C2254   1.403       .  A
C2251      C2258   1.402       .  A
C2254      C2255   1.391       .  A
C2254      F2259   1.358       .  S
C2255      C2256   1.402       .  A
C2255      F2261   1.359       .  S
C2256      C2257   1.404       .  A
C2257      C2258   1.398       .  A
C2257      F2260   1.358       .  S
C2258      F2262   1.357       .  S
C2265      C2266   1.407       .  A
C2265      C2270   1.400       .  A
C2265      F2283   1.358       .  S
C2266      C2271   1.493       .  S
C2266      C2267   1.408       .  A
C2267      C2268   1.405       .  A
C2267      F2272   1.358       .  S
C2268      C2269   1.411       .  A
C2268      F2284   1.358       .  S
C2269      C2270   1.410       .  A
C2270      F2273   1.358       .  S
C2271      C2274   1.408       .  A
C2271      C2278   1.406       .  A
C2274      C2275   1.405       .  A
C2274      F2279   1.358       .  S
C2275      C2276   1.410       .  A
C2275      F2281   1.358       .  S
C2276      C2277   1.411       .  A
C2277      C2278   1.400       .  A
C2277      F2280   1.358       .  S
C2278      F2282   1.358       .  S
C2285      C2286   1.406       .  A
C2285      C2290   1.399       .  A
C2285      F2303   1.358       .  S
C2286      C2291   1.489       .  S
C2286      C2287   1.408       .  A
C2287      C2288   1.404       .  A
C2287      F2292   1.358       .  S
C2288      C2289   1.408       .  A
C2288      F2304   1.358       .  S
C2289      C2290   1.408       .  A
C2290      F2293   1.358       .  S
C2291      C2294   1.407       .  A
C2291      C2298   1.408       .  A
C2294      C2295   1.397       .  A
C2294      F2299   1.358       .  S
C2295      C2296   1.406       .  A
C2295      F2301   1.358       .  S
C2296      C2297   1.408       .  A
C2297      C2298   1.405       .  A
C2297      F2300   1.358       .  S
C2298      F2302   1.357       .  S
C2305      C2306   1.402       .  A
C2305      C2310   1.399       .  A
C2305      F2323   1.358       .  S
C2306      C2311   1.479       .  S
C2306      C2307   1.405       .  A
C2307      C2308   1.403       .  A
C2307      F2312   1.358       .  S
C2308      C2309   1.408       .  A
C2308      F2324   1.357       .  S
C2309      C2310   1.411       .  A
C2310      F2313   1.358       .  S
C2311      C2314   1.405       .  A
C2311      C2318   1.400       .  A
C2314      C2315   1.407       .  A
C2314      F2319   1.357       .  S
C2315      C2316   1.413       .  A
C2315      F2321   1.358       .  S
C2316      C2317   1.411       .  A
C2317      C2318   1.394       .  A
C2317      F2320   1.358       .  S
C2318      F2322   1.358       .  S
C2325      C2326   1.407       .  A
C2325      C2330   1.403       .  A
C2325      F2343   1.358       .  S
C2326      C2331   1.485       .  S
C2326      C2327   1.404       .  A
C2327      C2328   1.398       .  A
C2327      F2332   1.358       .  S
C2328      C2329   1.409       .  A
C2328      F2344   1.358       .  S
C2329      C2330   1.409       .  A
C2330      F2333   1.358       .  S
C2331      C2334   1.404       .  A
C2331      C2338   1.404       .  A
C2334      C2335   1.398       .  A
C2334      F2339   1.358       .  S
C2335      C2336   1.413       .  A
C2335      F2341   1.358       .  S
C2336      C2337   1.413       .  A
C2337      C2338   1.403       .  A
C2337      F2340   1.357       .  S
C2338      F2342   1.357       .  S
C2345      C2346   1.406       .  A
C2345      C2350   1.398       .  A
C2345      F2363   1.358       .  S
C2346      C2351   1.481   1_554  S
C2346      C2347   1.407       .  A
C2347      C2348   1.397       .  A
C2347      F2352   1.358       .  S
C2348      C2349   1.403       .  A
C2348      F2364   1.358       .  S
C2349      C2350   1.406       .  A
C2350      F2353   1.358       .  S
C2351      C2354   1.406       .  A
C2351      C2358   1.406       .  A
C2354      C2355   1.398       .  A
C2354      F2359   1.358       .  S
C2355      C2356   1.407       .  A
C2355      F2361   1.358       .  S
C2356      C2357   1.404       .  A
C2357      C2358   1.396       .  A
C2357      F2360   1.358       .  S
C2358      F2362   1.358       .  S
C2365      C2366   1.402       .  A
C2365      C2370   1.396       .  A
C2365      F2383   1.358       .  S
C2366      C2371   1.470       .  S
C2366      C2367   1.402       .  A
C2367      C2368   1.391       .  A
C2367      F2372   1.359       .  S
C2368      C2369   1.411       .  A
C2368      F2384   1.359       .  S
C2369      C2370   1.410       .  A
C2370      F2373   1.358       .  S
C2371      C2374   1.405       .  A
C2371      C2378   1.401       .  A
C2374      C2375   1.395       .  A
C2374      F2379   1.358       .  S
C2375      C2376   1.407       .  A
C2375      F2381   1.358       .  S
C2376      C2377   1.411       .  A
C2377      C2378   1.394       .  A
C2377      F2380   1.358       .  S
C2378      F2382   1.358       .  S
C2385      C2386   1.406       .  A
C2385      C2390   1.406       .  A
C2385      F2403   1.357       .  S
C2386      C2391   1.479       .  S
C2386      C2387   1.403       .  A
C2387      C2388   1.395       .  A
C2387      F2392   1.358       .  S
C2388      C2389   1.408       .  A
C2388      F2404   1.359       .  S
C2389      C2390   1.408       .  A
C2390      F2393   1.357       .  S
C2391      C2394   1.405       .  A
C2391      C2398   1.406       .  A
C2394      C2395   1.398       .  A
C2394      F2399   1.358       .  S
C2395      C2396   1.403       .  A
C2395      F2401   1.358       .  S
C2396      C2397   1.405       .  A
C2397      C2398   1.402       .  A
C2397      F2400   1.358       .  S
C2398      F2402   1.358       .  S
C2405      C2406   1.410       .  A
C2405      C2410   1.406       .  A
C2405      F2423   1.357       .  S
C2406      C2411   1.491       .  S
C2406      C2407   1.407       .  A
C2407      C2408   1.399       .  A
C2407      F2412   1.358       .  S
C2408      C2409   1.407       .  A
C2408      F2424   1.358       .  S
C2409      C2410   1.406       .  A
C2410      F2413   1.358       .  S
C2411      C2414   1.406       .  A
C2411      C2418   1.408       .  A
C2414      C2415   1.400       .  A
C2414      F2419   1.358       .  S
C2415      C2416   1.410       .  A
C2415      F2421   1.358       .  S
C2416      C2417   1.410       .  A
C2417      C2418   1.405       .  A
C2417      F2420   1.358       .  S
C2418      F2422   1.358       .  S
C2425      C2426   1.405       .  A
C2425      C2430   1.403       .  A
C2425      F2443   1.358       .  S
C2426      C2431   1.487       .  S
C2426      C2427   1.405       .  A
C2427      C2428   1.400       .  A
C2427      F2432   1.358       .  S
C2428      C2429   1.412       .  A
C2428      F2444   1.358       .  S
C2429      C2430   1.413       .  A
C2430      F2433   1.358       .  S
C2431      C2434   1.405       .  A
C2431      C2438   1.405       .  A
C2434      C2435   1.400       .  A
C2434      F2439   1.358       .  S
C2435      C2436   1.412       .  A
C2435      F2441   1.358       .  S
C2436      C2437   1.411       .  A
C2437      C2438   1.403       .  A
C2437      F2440   1.358       .  S
C2438      F2442   1.358       .  S
C2445      C2446   1.405       .  A
C2445      C2450   1.395       .  A
C2445      F2463   1.358       .  S
C2446      C2451   1.480       .  S
C2446      C2447   1.407       .  A
C2447      C2448   1.404       .  A
C2447      F2452   1.358       .  S
C2448      C2449   1.405       .  A
C2448      F2464   1.358       .  S
C2449      C2450   1.402       .  A
C2450      F2453   1.358       .  S
C2451      C2454   1.407       .  A
C2451      C2458   1.406       .  A
C2454      C2455   1.402       .  A
C2454      F2459   1.358       .  S
C2455      C2456   1.404       .  A
C2455      F2461   1.358       .  S
C2456      C2457   1.402       .  A
C2457      C2458   1.397       .  A
C2457      F2460   1.358       .  S
C2458      F2462   1.358       .  S
C2465      C2466   1.408       .  A
C2465      C2470   1.402       .  A
C2465      F2483   1.358       .  S
C2466      C2471   1.492       .  S
C2466      C2467   1.406       .  A
C2467      C2468   1.401       .  A
C2467      F2472   1.358       .  S
C2468      C2469   1.414       .  A
C2468      F2484   1.358       .  S
C2469      C2470   1.410       .  A
C2470      F2473   1.358       .  S
C2471      C2474   1.408       .  A
C2471      C2478   1.405       .  A
C2474      C2475   1.405       .  A
C2474      F2479   1.357       .  S
C2475      C2476   1.411       .  A
C2475      F2481   1.357       .  S
C2476      C2477   1.415       .  A
C2477      C2478   1.397       .  A
C2477      F2480   1.358       .  S
C2478      F2482   1.358       .  S
C2485      C2486   1.408       .  A
C2485      C2490   1.404       .  A
C2485      F2503   1.357       .  S
C2486      C2491   1.490       .  S
C2486      C2487   1.408       .  A
C2487      C2488   1.397       .  A
C2487      F2492   1.358       .  S
C2488      C2489   1.408       .  A
C2488      F2504   1.358       .  S
C2489      C2490   1.408       .  A
C2490      F2493   1.358       .  S
C2491      C2494   1.409       .  A
C2491      C2498   1.408       .  A
C2494      C2495   1.402       .  A
C2494      F2499   1.358       .  S
C2495      C2496   1.406       .  A
C2495      F2501   1.358       .  S
C2496      C2497   1.406       .  A
C2497      C2498   1.400       .  A
C2497      F2500   1.358       .  S
C2498      F2502   1.358       .  S
C2505      C2506   1.406       .  A
C2505      C2510   1.401       .  A
C2505      F2523   1.358       .  S
C2506      C2511   1.487       .  S
C2506      C2507   1.405       .  A
C2507      C2508   1.403       .  A
C2507      F2512   1.358       .  S
C2508      C2509   1.411       .  A
C2508      F2524   1.358       .  S
C2509      C2510   1.407       .  A
C2510      F2513   1.358       .  S
C2511      C2514   1.403       .  A
C2511      C2518   1.408       .  A
C2514      C2515   1.395       .  A
C2514      F2519   1.359       .  S
C2515      C2516   1.411       .  A
C2515      F2521   1.359       .  S
C2516      C2517   1.409       .  A
C2517      C2518   1.409       .  A
C2517      F2520   1.357       .  S
C2518      F2522   1.357       .  S
C2525      C2526   1.405       .  A
C2525      C2530   1.401       .  A
C2525      F2543   1.358       .  S
C2526      C2531   1.491       .  S
C2526      C2527   1.409       .  A
C2527      C2528   1.403       .  A
C2527      F2532   1.358       .  S
C2528      C2529   1.409       .  A
C2528      F2544   1.358       .  S
C2529      C2530   1.411       .  A
C2530      F2533   1.358       .  S
C2531      C2534   1.404       .  A
C2531      C2538   1.408       .  A
C2534      C2535   1.401       .  A
C2534      F2539   1.358       .  S
C2535      C2536   1.414       .  A
C2535      F2541   1.357       .  S
C2536      C2537   1.412       .  A
C2537      C2538   1.403       .  A
C2537      F2540   1.358       .  S
C2538      F2542   1.358       .  S
C2545      C2546   1.410       .  A
C2545      C2550   1.401       .  A
C2545      F2563   1.358       .  S
C2546      C2551   1.487       .  S
C2546      C2547   1.406       .  A
C2547      C2548   1.398       .  A
C2547      F2552   1.358       .  S
C2548      C2549   1.405       .  A
C2548      F2564   1.358       .  S
C2549      C2550   1.404       .  A
C2550      F2553   1.358       .  S
C2551      C2554   1.404       .  A
C2551      C2558   1.410       .  A
C2554      C2555   1.393       .  A
C2554      F2559   1.358       .  S
C2555      C2556   1.410       .  A
C2555      F2561   1.358       .  S
C2556      C2557   1.407       .  A
C2557      C2558   1.406       .  A
C2557      F2560   1.357       .  S
C2558      F2562   1.358       .  S
C2565      C2566   1.407       .  A
C2565      C2570   1.400       .  A
C2565      F2583   1.358       .  S
C2566      C2571   1.491   1_556  S
C2566      C2567   1.407       .  A
C2567      C2568   1.403       .  A
C2567      F2572   1.358       .  S
C2568      C2569   1.412       .  A
C2568      F2584   1.358       .  S
C2569      C2570   1.409       .  A
C2570      F2573   1.358       .  S
C2571      C2574   1.409       .  A
C2571      C2578   1.407       .  A
C2574      C2575   1.405       .  A
C2574      F2579   1.358       .  S
C2575      C2576   1.408       .  A
C2575      F2581   1.358       .  S
C2576      C2577   1.406       .  A
C2577      C2578   1.398       .  A
C2577      F2580   1.358       .  S
C2578      F2582   1.358       .  S
C2585      C2586   1.404       .  A
C2585      C2590   1.395       .  A
C2585      F2603   1.358       .  S
C2586      C2591   1.477       .  S
C2586      C2587   1.406       .  A
C2587      C2588   1.401       .  A
C2587      F2592   1.357       .  S
C2588      C2589   1.403       .  A
C2588      F2604   1.358       .  S
C2589      C2590   1.405       .  A
C2590      F2593   1.359       .  S
C2591      C2594   1.405       .  A
C2591      C2598   1.405       .  A
C2594      C2595   1.401       .  A
C2594      F2599   1.358       .  S
C2595      C2596   1.405       .  A
C2595      F2601   1.358       .  S
C2596      C2597   1.404       .  A
C2597      C2598   1.397       .  A
C2597      F2600   1.358       .  S
C2598      F2602   1.358       .  S
C2605      C2606   1.405       .  A
C2605      C2610   1.399       .  A
C2605      F2623   1.358       .  S
C2606      C2611   1.482       .  S
C2606      C2607   1.404       .  A
C2607      C2608   1.399       .  A
C2607      F2612   1.358       .  S
C2608      C2609   1.411       .  A
C2608      F2624   1.358       .  S
C2609      C2610   1.409       .  A
C2610      F2613   1.358       .  S
C2611      C2614   1.402       .  A
C2611      C2618   1.406       .  A
C2614      C2615   1.394       .  A
C2614      F2619   1.358       .  S
C2615      C2616   1.414       .  A
C2615      F2621   1.359       .  S
C2616      C2617   1.411       .  A
C2617      C2618   1.403       .  A
C2617      F2620   1.357       .  S
C2618      F2622   1.358       .  S
