geometry optimzed in LAMMPS
_audit_creation_date              2020-12-01 
_audit_creation_method            'lammps2cif' 
_symmetry_space_group_name_H-M    'P1' 
_symmetry_Int_Tables_number       1 
_symmetry_cell_setting            triclinic 
loop_ 
_symmetry_equiv_pos_as_xyz 
  x,y,z 
_cell_length_a                    50.19356889 
_cell_length_b                    50.35887151734928 
_cell_length_c                    72.59729227724375 
_cell_angle_alpha                 89.68257733933444 
_cell_angle_beta                  90.43480033663904 
_cell_angle_gamma                 119.8496276001038 
loop_ 
_atom_site_label 
_atom_site_type_symbol 
_atom_site_fract_x 
_atom_site_fract_y 
_atom_site_fract_z 
_atom_site_charge 
O1          O  0.41788862  0.06415166  0.62159227    -0.81700
O2          O  0.45929946  0.09941879  0.54130109    -0.66400
O3          O  0.44908705  0.10153887  0.59284265    -1.13000
C4          C  0.35262005  0.09178471  0.57513760     1.05200
O5          O  0.44240005  0.13150704  0.53540390    -0.79600
O6          O  0.41571399  0.14897696  0.56096884    -0.67200
Ni7        Ni  0.45454568  0.07419268  0.60856977     1.34900
C8          C  0.42453121  0.15813621  0.57728473     0.83900
O9          O  0.99422010  0.10613448  0.57084745    -0.80200
O10         O  0.99042717  0.08167573  0.59745990    -0.90400
C11         C  0.46031182  0.12108736  0.53190133     0.83500
O12         O  0.43090509  0.03806045  0.59460367    -0.68600
O13         O  0.36244792  0.09503111  0.55857249    -0.87900
C14         C  0.42828397  0.03341628  0.57740955     0.84300
C15         C  0.00491108  0.09558852  0.58288854     1.05900
H16         H  0.39920120  0.06969907  0.56349887     0.37700
O17         O  0.41275173  0.09121957  0.56590427    -1.10600
O18         O  0.42639407  0.14123878  0.58984236    -0.67200
Ni19       Ni  0.40891336  0.09711669  0.59162523     1.26300
O20         O  0.43840778  0.05510879  0.56570062    -0.67500
O21         O  0.36821768  0.09230079  0.58934259    -0.79800
C22         C  0.41372005  0.08469373  0.62856322     0.83700
O23         O  0.40823690  0.10182731  0.61807212    -0.66900
Ni24       Ni  0.40272179  0.11208742  0.54779430     1.27400
Ni25       Ni  0.45394962  0.09886934  0.56718001     1.26100
H26         H  0.46363948  0.12211791  0.59673129     0.38200
O27         O  0.05648079  0.14413192  0.37511358    -0.81700
O28         O  0.04460161  0.13989787  0.46232307    -0.66400
O29         O  0.04372326  0.15500763  0.41085978    -1.13000
C30         C  0.14856062  0.23182829  0.42304787     1.05200
O31         O  0.06592890  0.18906866  0.46898264    -0.79600
O32         O  0.08897479  0.23278567  0.44299015    -0.67200
Ni33       Ni  0.02956466  0.12057011  0.39454422     1.34900
C34         C  0.08328548  0.23790275  0.42673382     0.83900
O35         O  0.00118903  0.11444855  0.43725763    -0.80200
O36         O  0.99899536  0.09148932  0.41088071    -0.90400
C37         C  0.04707690  0.16112187  0.47267805     0.83500
O38         O  0.05890266  0.11012441  0.40322941    -0.68600
O39         O  0.14080256  0.22850751  0.44006315    -0.87900
C40         C  0.06469383  0.10568958  0.41964833     0.84300
C41         C  0.98779077  0.09198226  0.42635872     1.05900
H42         H  0.09819871  0.16620745  0.43656304     0.37700
O43         O  0.08605499  0.17616055  0.43539988    -1.10600
O44         O  0.07871837  0.21977648  0.41324468    -0.67200
Ni45       Ni  0.08693980  0.18595727  0.40992234     1.26300
O46         O  0.05606877  0.11500338  0.43345763    -0.67500
O47         O  0.13021173  0.21601303  0.41004272    -0.79800
C48         C  0.07491254  0.17203537  0.37153641     0.83700
O49         O  0.08650571  0.19276281  0.38383063    -0.66900
Ni50       Ni  0.10251853  0.20712625  0.45364659     1.27400
Ni51       Ni  0.04369734  0.14566122  0.43652918     1.26100
H52         H  0.03123229  0.16445041  0.40900162     0.38200
O53         O  0.06169247  0.41927921  0.37941453    -0.81700
O54         O  0.09243366  0.45952253  0.46009330    -0.66400
O55         O  0.09774816  0.45152044  0.40849106    -1.13000
C56         C  0.09082828  0.35656258  0.42580261     1.05200
O57         O  0.12670051  0.44502644  0.46574279    -0.79600
O58         O  0.14582258  0.41838041  0.44076463    -0.67200
Ni59       Ni  0.07155841  0.45663146  0.39161372     1.34900
C60         C  0.15625781  0.42919578  0.42495051     0.83900
O61         O  0.09558356  0.99460439  0.43255178    -0.80200
O62         O  0.07750271  0.99301466  0.40394515    -0.90400
C63         C  0.11499497  0.46180199  0.46941098     0.83500
O64         O  0.03443468  0.43483472  0.40496054    -0.68600
O65         O  0.09215534  0.36545114  0.44247527    -0.87900
C66         C  0.02765747  0.42809895  0.42175979     0.84300
C67         C  0.08797073  0.00633244  0.41935861     1.05900
H68         H  0.06642397  0.40037459  0.43683583     0.37700
O69         O  0.08796887  0.41503127  0.43500217    -1.10600
O70         O  0.13991611  0.43197819  0.41232946    -0.67200
Ni71       Ni  0.09555133  0.41245647  0.40953498     1.26300
O72         O  0.04811463  0.43583263  0.43428177    -0.67500
O73         O  0.09279671  0.37280222  0.41166728    -0.79800
C74         C  0.08244636  0.41512471  0.37260336     0.83700
O75         O  0.10124725  0.41235651  0.38323838    -0.66900
Ni76       Ni  0.10841203  0.40537842  0.45344342     1.27400
Ni77       Ni  0.09271345  0.45500165  0.43402404     1.26100
H78         H  0.11847882  0.46683558  0.40537896     0.38200
O79         O  0.14234538  0.07551761  0.62298403    -0.81700
O80         O  0.13661254  0.04949901  0.54036528    -0.66400
O81         O  0.15363196  0.05222592  0.59154421    -1.13000
C82         C  0.22994888  0.15592131  0.57737483     1.05200
O83         O  0.18589000  0.06985916  0.53350853    -0.79600
O84         O  0.23136393  0.09532063  0.55886551    -0.67200
Ni85       Ni  0.12099756  0.03879141  0.60896772     1.34900
C86         C  0.23589519  0.08906415  0.57512932     0.83900
O87         O  0.11040051  0.00828092  0.56674805    -0.80200
O88         O  0.09604104  0.00093072  0.59624296    -0.90400
C89         C  0.15762260  0.05119002  0.53006958     0.83500
O90         O  0.09940693  0.05664131  0.59792658    -0.68600
O91         O  0.22642480  0.14661744  0.56061700    -0.87900
C92         C  0.09933322  0.06684362  0.58199379     0.84300
C93         C  0.09294748  0.99160287  0.57966070     1.05900
H94         H  0.16495986  0.10497785  0.56492333     0.37700
O95         O  0.17453287  0.09252359  0.56630212    -1.10600
O96         O  0.21806623  0.08543440  0.58859888    -0.67200
Ni97       Ni  0.18502123  0.09488673  0.59170190     1.26300
O98         O  0.11417594  0.06459895  0.56861150    -0.67500
O99         O  0.21521774  0.13811738  0.59080559    -0.79800
C100        C  0.16962994  0.08725675  0.62879852     0.83700
O101        O  0.19185551  0.09489555  0.61778500    -0.66900
Ni102      Ni  0.20485820  0.10758530  0.54784297     1.27400
Ni103      Ni  0.14312718  0.05038225  0.56613287     1.26100
H104        H  0.16326382  0.03985148  0.59338145     0.38200
O105        O  0.35690758  0.43767081  0.38002479    -0.81700
O106        O  0.35524761  0.40799531  0.46250434    -0.66400
O107        O  0.34528759  0.39978579  0.41043450    -1.13000
C108        C  0.26281167  0.41790809  0.42342618     1.05200
O109        O  0.30657444  0.37330176  0.46677261    -0.79600
O110        O  0.26312208  0.35303458  0.43910442    -0.67200
Ni111      Ni  0.37941139  0.42384234  0.39468017     1.34900
C112        C  0.26229368  0.34520039  0.42240903     0.83900
O113        O  0.38667637  0.39854024  0.43669332    -0.80200
O114        O  0.40491838  0.41215692  0.40804524    -0.90400
C115        C  0.33475633  0.38616434  0.47188007     0.83500
O116        O  0.39656363  0.46173816  0.40739691    -0.68600
O117        O  0.26345535  0.40768794  0.43958952    -0.87900
C118        C  0.39486542  0.46949728  0.42371042     0.84300
C119        C  0.40601388  0.40262795  0.42417924     1.05900
H120        H  0.32565262  0.43370331  0.43792563     0.37700
O121        O  0.31831188  0.41232890  0.43543116    -1.10600
O122        O  0.28068693  0.36339902  0.41016329    -0.67200
Ni123      Ni  0.31127304  0.40723169  0.40944004     1.26300
O124        O  0.37946321  0.44994227  0.43616673    -0.67500
O125        O  0.27893994  0.41741226  0.40997468    -0.79800
C126        C  0.33113262  0.42009840  0.37271687     0.83700
O127        O  0.30796304  0.40347420  0.38280001    -0.66900
Ni128      Ni  0.28577082  0.39076784  0.45227554     1.27400
Ni129      Ni  0.35230565  0.40554561  0.43642180     1.26100
H130        H  0.33794807  0.37848042  0.40770642     0.38200
O131        O  0.44116546  0.35840552  0.62020817    -0.81700
O132        O  0.40962800  0.36125606  0.53891251    -0.66400
O133        O  0.40330466  0.35253665  0.59104530    -1.13000
C134        C  0.41038444  0.26358803  0.57705234     1.05200
O135        O  0.37143421  0.31446028  0.53569282    -0.79600
O136        O  0.35057795  0.26953414  0.56205080    -0.67200
Ni137      Ni  0.43168387  0.38516618  0.60649540     1.34900
C138        C  0.34170127  0.27063338  0.57821161     0.83900
O139        O  0.40673529  0.39623543  0.56542246    -0.80200
O140        O  0.42458965  0.41477001  0.59375658    -0.90400
C141        C  0.38576209  0.34236881  0.53023638     0.83500
O142        O  0.46825255  0.39682767  0.59302927    -0.68600
O143        O  0.40333267  0.26685770  0.56044035    -0.87900
C144        C  0.47399466  0.39450252  0.57634360     0.84300
C145        C  0.41507297  0.41685637  0.57775891     1.05900
H146        H  0.43184049  0.32774337  0.56358840     0.37700
O147        O  0.41081474  0.32240390  0.56584638    -1.10600
O148        O  0.35993258  0.28926168  0.59045405    -0.67200
Ni149      Ni  0.40497786  0.31515048  0.59162960     1.26300
O150        O  0.45291852  0.38173697  0.56428801    -0.67500
O151        O  0.40950162  0.27920724  0.59071882    -0.79800
C152        C  0.42103651  0.33427021  0.62798850     0.83700
O153        O  0.40137000  0.31207137  0.61821555    -0.66900
Ni154      Ni  0.38789784  0.29130116  0.54866068     1.27400
Ni155      Ni  0.40837304  0.35887908  0.56507920     1.26100
H156        H  0.38279828  0.34806840  0.59419676     0.38200
O157        O  0.02542290  0.26671379  0.04608294    -0.81700
O158        O  0.02498191  0.23656752  0.12647936    -0.66400
O159        O  0.01316259  0.22786727  0.07489452    -1.13000
C160        C  0.42862268  0.24739066  0.08893468     1.05200
O161        O  0.47587972  0.20577091  0.13182604    -0.79600
O162        O  0.43213361  0.18576084  0.10487820    -0.67200
Ni163      Ni  0.04631671  0.24885443  0.05843862     1.34900
C164        C  0.43283263  0.17640452  0.08878110     0.83900
O165        O  0.05471333  0.22680064  0.10002720    -0.80200
O166        O  0.06975825  0.23294299  0.07056485    -0.90400
C167        C  0.00422496  0.21478973  0.13572835     0.83500
O168        O  0.06865874  0.28626075  0.07119943    -0.68600
O169        O  0.43121190  0.23975052  0.10550648    -0.87900
C170        C  0.06776897  0.29557838  0.08719352     0.84300
C171        C  0.07227367  0.22701885  0.08744789     1.05900
H172        H  0.99523460  0.26325681  0.10207349     0.37700
O173        O  0.48632977  0.24409553  0.10051286    -1.10600
O174        O  0.45063244  0.19411457  0.07617435    -0.67200
Ni175      Ni  0.47846622  0.23836755  0.07464059     1.26300
O176        O  0.04934670  0.27826545  0.09959842    -0.67500
O177        O  0.44424303  0.24601225  0.07543054    -0.79800
C178        C  0.99998287  0.25067463  0.03802623     0.83700
O179        O  0.47480991  0.23471257  0.04798991    -0.66900
Ni180      Ni  0.45453024  0.22334166  0.11786177     1.27400
Ni181      Ni  0.02095737  0.23416352  0.10046304     1.26100
H182        H  0.00532903  0.20633381  0.07265077     0.38200
O183        O  0.10830786  0.20010091  0.28576039    -0.81700
O184        O  0.07626691  0.19699724  0.20327241    -0.66400
O185        O  0.07119044  0.18896312  0.25537269    -1.13000
C186        C  0.09123394  0.10699187  0.24324603     1.05200
O187        O  0.04555826  0.14718627  0.19933291    -0.79600
O188        O  0.02953314  0.10498021  0.22654918    -0.67200
Ni189      Ni  0.09516498  0.22303977  0.27102228     1.34900
C190        C  0.01892100  0.10608587  0.24215393     0.83900
O191        O  0.06733646  0.22826662  0.22938213    -0.80200
O192        O  0.08376127  0.24868596  0.25742421    -0.90400
C193        C  0.05478181  0.17484224  0.19456155     0.83500
O194        O  0.13262089  0.23851002  0.25811712    -0.68600
O195        O  0.08574377  0.11011281  0.22633456    -0.87900
C196        C  0.13967841  0.23764337  0.24151413     0.84300
C197        C  0.07275713  0.24853967  0.24149925     1.05900
H198        H  0.10675790  0.17107358  0.22877063     0.37700
O199        O  0.08497334  0.16254016  0.23062888    -1.10600
O200        O  0.03483446  0.12608337  0.25434381    -0.67200
Ni201      Ni  0.07865381  0.15510349  0.25647666     1.26300
O202        O  0.11968817  0.22350831  0.22900429    -0.67500
O203        O  0.08770182  0.12181111  0.25644583    -0.79800
C204        C  0.08949202  0.17485611  0.29306086     0.83700
O205        O  0.07327925  0.15161285  0.28292498    -0.66900
Ni206      Ni  0.06651248  0.12990751  0.21355593     1.27400
Ni207      Ni  0.07574333  0.19505044  0.22943978     1.26100
H208        H  0.04989398  0.18168810  0.25827702     0.38200
O209        O  0.31342450  0.41967567  0.28581524    -0.81700
O210        O  0.31220627  0.38802256  0.20425304    -0.66400
O211        O  0.32301416  0.39120445  0.25619796    -1.13000
C212        C  0.40900516  0.48907847  0.24185918     1.05200
O213        O  0.36062483  0.40052678  0.19973056    -0.79600
O214        O  0.40363476  0.42232352  0.22691459    -0.67200
Ni215      Ni  0.28973466  0.38249456  0.27228604     1.34900
C216        C  0.40353441  0.41408508  0.24346064     0.83900
O217        O  0.27981079  0.34977518  0.23084868    -0.80200
O218        O  0.26312005  0.34470894  0.25989709    -0.90400
C219        C  0.33219955  0.38520559  0.19529735     0.83500
O220        O  0.27271383  0.40288392  0.25884634    -0.68600
O221        O  0.40711574  0.47806873  0.22567688    -0.87900
C222        C  0.27516960  0.41298436  0.24256364     0.84300
C223        C  0.26072884  0.33475522  0.24350194     1.05900
H224        H  0.34429184  0.44419120  0.22789548     0.37700
O225        O  0.35084812  0.42949980  0.23056338    -1.10600
O226        O  0.38619194  0.41537856  0.25582555    -0.67200
Ni227      Ni  0.35815086  0.43171280  0.25652138     1.26300
O228        O  0.29060336  0.40888335  0.23023852    -0.67500
O229        O  0.39223032  0.47314408  0.25535916    -0.79800
C230        C  0.33897007  0.42687265  0.29325821     0.83700
O231        O  0.36174577  0.43182288  0.28319812    -0.66900
Ni232      Ni  0.38277599  0.43896377  0.21349979     1.27400
Ni233      Ni  0.31571110  0.38957694  0.23030983     1.26100
H234        H  0.32968078  0.37663915  0.25905831     0.38200
O235        O  0.22629318  0.25345680  0.04788456    -0.81700
O236        O  0.25757882  0.28788161  0.12954725    -0.66400
O237        O  0.26293656  0.28407228  0.07744745    -1.13000
C238        C  0.26247165  0.19100491  0.09174386     1.05200
O239        O  0.29593936  0.27851960  0.13322517    -0.79600
O240        O  0.31774171  0.25657111  0.10643579    -0.67200
Ni241      Ni  0.23556637  0.28937060  0.06145725     1.34900
C242        C  0.32511221  0.26449621  0.08978370     0.83900
O243        O  0.25914638  0.32422061  0.10262786    -0.80200
O244        O  0.24309506  0.32596898  0.07391808    -0.90400
C245        C  0.28165849  0.29241646  0.13804090     0.83500
O246        O  0.19911450  0.26504178  0.07485783    -0.68600
O247        O  0.26746995  0.20070778  0.10843336    -0.87900
C248        C  0.19294580  0.25591450  0.09137368     0.84300
C249        C  0.25268213  0.33749535  0.08984070     1.05900
H250        H  0.23558865  0.23112419  0.10562304     0.37700
O251        O  0.25640286  0.24693250  0.10306879    -1.10600
O252        O  0.30640976  0.26479146  0.07784496    -0.67200
Ni253      Ni  0.26176585  0.24528136  0.07715360     1.26300
O254        O  0.21347926  0.26352971  0.10380598    -0.67500
O255        O  0.25978182  0.20591294  0.07815714    -0.79800
C256        C  0.24727264  0.25039590  0.04048146     0.83700
O257        O  0.26556220  0.24607648  0.05065840    -0.66900
Ni258      Ni  0.28066830  0.23973845  0.12015761     1.27400
Ni259      Ni  0.25805302  0.28564074  0.10336311     1.26100
H260        H  0.28350405  0.29997839  0.07439413     0.38200
O261        O  0.24893719  0.48397663  0.04165386    -0.81700
O262        O  0.20700395  0.47291118  0.12325829    -0.66400
O263        O  0.21708376  0.48895007  0.07161657    -1.13000
C264        C  0.32117854  0.06324178  0.08973711     1.05200
O265        O  0.23466083  0.02533073  0.13262041    -0.79600
O266        O  0.26435754  0.06997365  0.10690959    -0.67200
Ni267      Ni  0.21298953  0.45726774  0.05534381     1.34900
C268        C  0.25793019  0.07405678  0.09057396     0.83900
O269        O  0.17093848  0.44341762  0.09449111    -0.80200
O270        O  0.17659725  0.42633535  0.06721273    -0.90400
C271        C  0.21485001  0.99765511  0.13648582     0.83500
O272        O  0.23808326  0.44565809  0.06908175    -0.68600
O273        O  0.31217429  0.05989660  0.10651520    -0.87900
C274        C  0.23976959  0.44162332  0.08620645     0.84300
C275        C  0.16247038  0.42231562  0.08235132     1.05900
H276        H  0.26752400  0.99998196  0.10226890     0.37700
O277        O  0.25607421  0.01054158  0.10050303    -1.10600
O278        O  0.25177055  0.05461718  0.07760634    -0.67200
Ni279      Ni  0.25952430  0.02037086  0.07505188     1.26300
O280        O  0.22801491  0.45111687  0.09801440    -0.67500
O281        O  0.30296266  0.04914647  0.07636095    -0.79800
C282        C  0.25025335  0.00715072  0.03663985     0.83700
O283        O  0.26165519  0.02759820  0.04904976    -0.66900
Ni284      Ni  0.27273369  0.04126772  0.11875528     1.27400
Ni285      Ni  0.21184729  0.47870747  0.09727294     1.26100
H286        H  0.20393694  0.99939510  0.07149068     0.38200
O287        O  0.09249589  0.40185149  0.28675736    -0.81700
O288        O  0.12273391  0.43146370  0.20403461    -0.66400
O289        O  0.11974744  0.43823592  0.25599525    -1.13000
C290        C  0.01951227  0.42220563  0.24272141     1.05200
O291        O  0.10512042  0.46333110  0.19873761    -0.79600
O292        O  0.08164604  0.48285991  0.22565540    -0.67200
Ni293      Ni  0.12824292  0.41324374  0.27207066     1.34900
C294        C  0.09274906  0.49301407  0.24150501     0.83900
O295        O  0.16210271  0.43967842  0.23076910    -0.80200
O296        O  0.16503279  0.42279189  0.25892223    -0.90400
C297        C  0.12260184  0.45257942  0.19453760     0.83500
O298        O  0.10529467  0.37575567  0.25917727    -0.68600
O299        O  0.02833794  0.42834437  0.22591835    -0.87900
C300        C  0.09769025  0.36886871  0.24245371     0.84300
C301        C  0.17633221  0.43361040  0.24313247     1.05900
H302        H  0.06620529  0.40403509  0.22877059     0.37700
O303        O  0.08006986  0.42563906  0.23064119    -1.10600
O304        O  0.09507032  0.47638510  0.25407763    -0.67200
Ni305      Ni  0.07913352  0.43246866  0.25642838     1.26300
O306        O  0.10435531  0.38901264  0.22998564    -0.67500
O307        O  0.03748766  0.42472182  0.25599919    -0.79800
C308        C  0.08519782  0.42056775  0.29335334     0.83700
O309        O  0.08050990  0.43806609  0.28275678    -0.66900
Ni310      Ni  0.06716841  0.44508535  0.21314652     1.27400
Ni311      Ni  0.12118422  0.43301157  0.23013583     1.26100
H312        H  0.13428951  0.45932045  0.25892689     0.38200
O313        O  0.42404944  0.32653651  0.71524455    -0.81700
O314        O  0.39179465  0.32563244  0.79472792    -0.66400
O315        O  0.39342295  0.33515209  0.74302933    -1.13000
C316        C  0.49122716  0.42252379  0.75618985     1.05200
O317        O  0.40390406  0.37398655  0.79892338    -0.79600
O318        O  0.42505369  0.41734678  0.77189663    -0.67200
Ni319      Ni  0.38602544  0.30187525  0.72740170     1.34900
C320        C  0.41557679  0.41691746  0.75558054     0.83900
O321        O  0.35253671  0.29230633  0.76816781    -0.80200
O322        O  0.34736122  0.27568882  0.73900586    -0.90400
C323        C  0.38926208  0.34576851  0.80364316     0.83500
O324        O  0.40569325  0.28379360  0.74107774    -0.68600
O325        O  0.48099166  0.42046706  0.77260715    -0.87900
C326        C  0.41587181  0.28674015  0.75741373     0.84300
C327        C  0.33696708  0.27384135  0.75525212     1.05900
H328        H  0.44745720  0.35809758  0.77047150     0.37700
O329        O  0.43234146  0.36425670  0.76811110    -1.10600
O330        O  0.41584448  0.39894153  0.74314614    -0.67200
Ni331      Ni  0.43332524  0.37136504  0.74221938     1.26300
O332        O  0.41248298  0.30344044  0.76923266    -0.67500
O333        O  0.47454079  0.40620142  0.74272027    -0.79800
C334        C  0.42841098  0.35021436  0.70664556     0.83700
O335        O  0.43220994  0.37355220  0.71563129    -0.66900
Ni336      Ni  0.44205731  0.39632870  0.78501208     1.27400
Ni337      Ni  0.39261223  0.32840190  0.76874358     1.26100
H338        H  0.37807904  0.34082144  0.74014950     0.38200
O339        O  0.27765269  0.25406044  0.95694558    -0.81700
O340        O  0.30513790  0.27550750  0.87350985    -0.66400
O341        O  0.29941599  0.28759389  0.92469360    -1.13000
C342        C  0.19503633  0.25653323  0.90903655     1.05200
O343        O  0.28134884  0.30107313  0.86604167    -0.79600
O344        O  0.25371812  0.31826888  0.89056650    -0.67200
Ni345      Ni  0.31435049  0.27052096  0.94277345     1.34900
C346        C  0.25969568  0.32945248  0.90663368     0.83900
O347        O  0.34525460  0.29179251  0.90065889    -0.80200
O348        O  0.35262302  0.28444788  0.93018500    -0.90400
C349        C  0.30201741  0.29405076  0.86305522     0.83500
O350        O  0.29810697  0.23142097  0.93210849    -0.68600
O351        O  0.20423507  0.26155790  0.89229701    -0.87900
C352        C  0.29154390  0.22114565  0.91586168     0.84300
C353        C  0.36193392  0.29091299  0.91361132     1.05900
H354        H  0.24860717  0.24438641  0.89772734     0.37700
O355        O  0.25966519  0.26628922  0.89896125    -1.10600
O356        O  0.26390862  0.31604397  0.92046901    -0.67200
Ni357      Ni  0.25621943  0.27432312  0.92425839     1.26300
O358        O  0.29239931  0.23720003  0.90201505    -0.67500
O359        O  0.21273114  0.25990481  0.92269658    -0.79800
C360        C  0.26392815  0.26801537  0.96203548     0.83700
O361        O  0.25510327  0.28105885  0.95036395    -0.66900
Ni362      Ni  0.24349746  0.28024133  0.87998064     1.27400
Ni363      Ni  0.30258805  0.27965422  0.89937272     1.26100
H364        H  0.31071801  0.30953681  0.92638593     0.38200
O365        O  0.19280017  0.11805021  0.71363637    -0.81700
O366        O  0.21111916  0.09232601  0.79315796    -0.66400
O367        O  0.19392515  0.08323932  0.74199697    -1.13000
C368        C  0.10481160  0.08650495  0.76149699     1.05200
O369        O  0.16419224  0.05414396  0.79880790    -0.79600
O370        O  0.11529191  0.03222347  0.77524841    -0.67200
Ni371      Ni  0.22277217  0.11025442  0.72454585     1.34900
C372        C  0.11446669  0.02269360  0.75901030     0.83900
O373        O  0.24263261  0.08989094  0.76448791    -0.80200
O374        O  0.25496245  0.10491762  0.73495000    -0.90400
C375        C  0.19271649  0.06954356  0.80279767     0.83500
O376        O  0.23707108  0.14738619  0.73754572    -0.68600
O377        O  0.11264126  0.08386646  0.77797605    -0.87900
C378        C  0.23824573  0.15424367  0.75437961     0.84300
C379        C  0.26126289  0.09884494  0.75095230     1.05900
H380        H  0.17299199  0.11267995  0.77107223     0.37700
O381        O  0.16757707  0.09164663  0.76905020    -1.10600
O382        O  0.13269706  0.03952139  0.74639472    -0.67200
Ni383      Ni  0.15600651  0.08372526  0.74390565     1.26300
O384        O  0.22687020  0.13413759  0.76700603    -0.67500
O385        O  0.11877102  0.08555134  0.74702309    -0.79800
C386        C  0.16840921  0.09637183  0.70706217     0.83700
O387        O  0.14807116  0.07735705  0.71790177    -0.66900
Ni388      Ni  0.13928751  0.06980505  0.78782778     1.27400
Ni389      Ni  0.20454393  0.08987231  0.76733561     1.26100
H390        H  0.18943155  0.06267296  0.73893994     0.38200
O391        O  0.29211915  0.03013057  0.95227343    -0.81700
O392        O  0.25980516  0.05048235  0.87584748    -0.66400
O393        O  0.25373537  0.03057992  0.92665389    -1.13000
C394        C  0.25894183  0.44406464  0.90343817     1.05200
O395        O  0.22593490  0.50439701  0.86669611    -0.79600
O396        O  0.20353518  0.45526944  0.89043605    -0.67200
Ni397      Ni  0.28074374  0.05888349  0.94437729     1.34900
C398        C  0.19535352  0.45331941  0.90713772     0.83900
O399        O  0.25718199  0.07935080  0.90654227    -0.80200
O400        O  0.27064617  0.08907253  0.93658903    -0.90400
C401        C  0.23835212  0.03185589  0.86537149     0.83500
O402        O  0.31728950  0.07790289  0.93032127    -0.68600
O403        O  0.25512482  0.45176066  0.88714860    -0.87900
C404        C  0.32275523  0.07967157  0.91324864     0.84300
C405        C  0.26460739  0.09640154  0.92089648     1.05900
H406        H  0.28285339  0.01259775  0.89564278     0.37700
O407        O  0.26368316  0.50718858  0.89645853    -1.10600
O408        O  0.21302946  0.47087311  0.91977173    -0.67200
Ni409      Ni  0.25728160  0.49508231  0.92167101     1.26300
O410        O  0.30222818  0.06595501  0.90110801    -0.67500
O411        O  0.25986597  0.45866635  0.91798232    -0.79800
C412        C  0.27108391  0.00651425  0.95976147     0.83700
O413        O  0.25214725  0.48662016  0.94773610    -0.66900
Ni414      Ni  0.24129268  0.47900463  0.87765480     1.27400
Ni415      Ni  0.25833944  0.04223127  0.90162274     1.26100
H416        H  0.23308245  0.02509105  0.93013901     0.38200
O417        O  0.49723659  0.26875516  0.95247459    -0.81700
O418        O  0.49073233  0.23763840  0.87233403    -0.66400
O419        O  0.50247608  0.23734111  0.92402074    -1.13000
C420        C  0.09092529  0.33365155  0.90962715     1.05200
O421        O  0.03728915  0.24616703  0.86742538    -0.79600
O422        O  0.08268655  0.26677133  0.89343398    -0.67200
Ni423      Ni  0.47081618  0.23102043  0.94062775     1.34900
C424        C  0.08225899  0.25703612  0.90965690     0.83900
O425        O  0.45695592  0.19929016  0.89911872    -0.80200
O426        O  0.44292970  0.19312759  0.92901740    -0.90400
C427        C  0.50852929  0.23174823  0.86316678     0.83500
O428        O  0.45332251  0.25174679  0.92786813    -0.68600
O429        O  0.08764405  0.32343190  0.89307706    -0.87900
C430        C  0.45701126  0.26376307  0.91205717     0.84300
C431        C  0.43913399  0.18414501  0.91231950     1.05900
H432        H  0.02642971  0.29263764  0.89657040     0.37700
O433        O  0.03156923  0.27672830  0.89854752    -1.10600
O434        O  0.06527340  0.25808902  0.92234057    -0.67200
Ni435      Ni  0.03957465  0.27696834  0.92423403     1.26300
O436        O  0.47260351  0.26016885  0.89958543    -0.67500
O437        O  0.07530723  0.31737090  0.92339409    -0.79800
C438        C  0.02038893  0.27113733  0.96035303     0.83700
O439        O  0.04332092  0.27520322  0.95079799    -0.66900
Ni440      Ni  0.06191077  0.28461028  0.88088734     1.27400
Ni441      Ni  0.49462669  0.23757566  0.89843928     1.26100
H442        H  0.00820700  0.22195836  0.92548907     0.38200
O443        O  0.42516138  0.12224038  0.71013463    -0.81700
O444        O  0.43903563  0.13877004  0.79619649    -0.66400
O445        O  0.45383718  0.13714385  0.74498108    -1.13000
C446        C  0.41955590  0.03138806  0.75872989     1.05200
O447        O  0.46677080  0.11710506  0.80306785    -0.79600
O448        O  0.48401508  0.08958090  0.77735046    -0.67200
Ni449      Ni  0.43711633  0.15407362  0.72773152     1.34900
C450        C  0.49366528  0.09434728  0.76089719     0.83900
O451        O  0.45872163  0.18234520  0.77110497    -0.80200
O452        O  0.44640542  0.18893924  0.74260499    -0.90400
C453        C  0.45794257  0.13633154  0.80664308     0.83500
O454        O  0.39670714  0.13265016  0.73707378    -0.68600
O455        O  0.42673890  0.04051869  0.77546523    -0.87900
C456        C  0.38682076  0.12726728  0.75344206     0.84300
C457        C  0.45397011  0.19803360  0.75906089     1.05900
H458        H  0.40943573  0.08539401  0.77161027     0.37700
O459        O  0.43154549  0.09628927  0.77005312    -1.10600
O460        O  0.47944599  0.09860028  0.74750919    -0.67200
Ni461      Ni  0.43833998  0.09329183  0.74463859     1.26300
O462        O  0.40346516  0.12998733  0.76741013    -0.67500
O463        O  0.42187211  0.04940999  0.74553968    -0.79800
C464        C  0.43230662  0.10208277  0.70654138     0.83700
O465        O  0.44341927  0.09165913  0.71850518    -0.66900
Ni466      Ni  0.44600761  0.07950309  0.78841979     1.27400
Ni467      Ni  0.44550337  0.13907225  0.77060048     1.26100
H468        H  0.47610278  0.14787938  0.74334423     0.38200
C469        C  0.50333549  0.17965092  0.82268996    -0.02700
C470        C  0.47157477  0.15846002  0.82208259     0.07000
C471        C  0.45199537  0.16197741  0.83423789    -0.02800
C472        C  0.46350769  0.18742146  0.84609156    -0.02800
C473        C  0.49576089  0.20789199  0.84796360     0.07100
C474        C  0.01571444  0.20281424  0.83644202    -0.03000
Br475      Br  0.05976160  0.22960203  0.83630649    -0.01500
Br476      Br  0.02997347  0.17222960  0.80738930    -0.01600
Br477      Br  0.43329655  0.19458689  0.85750547    -0.01600
Br478      Br  0.40893997  0.13088944  0.83493499    -0.01500
C479        C  0.13926767  0.41891604  0.90035233    -0.02700
C480        C  0.16478796  0.42695384  0.91199938     0.07000
C481        C  0.16270421  0.40585516  0.92569696    -0.02800
C482        C  0.13716658  0.37593220  0.92607783    -0.02800
C483        C  0.11394091  0.36658770  0.91252802     0.07100
C484        C  0.11391155  0.38892002  0.90067420    -0.03000
Br485      Br  0.07852222  0.37862066  0.88529466    -0.01500
Br486      Br  0.13925607  0.44904191  0.88381724    -0.01600
Br487      Br  0.13522826  0.34764671  0.94466069    -0.01600
Br488      Br  0.19609872  0.41610805  0.94279337    -0.01500
C489        C  0.40848363  0.12763386  0.91527240    -0.02700
C490        C  0.41160645  0.15503144  0.90812881     0.07000
C491        C  0.38661078  0.15518182  0.89938273    -0.02800
C492        C  0.35853313  0.12796946  0.89777293    -0.02800
C493        C  0.35406476  0.10174152  0.90746385     0.07100
C494        C  0.37932358  0.10125555  0.91572672    -0.03000
Br495      Br  0.37349353  0.06530654  0.92877065    -0.01500
Br496      Br  0.44376192  0.12712001  0.92554105    -0.01600
Br497      Br  0.32525260  0.12843728  0.88457329    -0.01600
Br498      Br  0.38851498  0.19328379  0.89307056    -0.01500
C499        C  0.02151268  0.06519852  0.76463725    -0.02700
C500        C  0.02195054  0.09219168  0.75850653     0.07000
C501        C  0.04952826  0.11642856  0.75138816    -0.02800
C502        C  0.07684015  0.11461207  0.75189676    -0.02800
C503        C  0.07646299  0.08840962  0.75926971     0.07100
C504        C  0.04850357  0.06340578  0.76505265    -0.03000
Br505      Br  0.04688859  0.02611773  0.77348048    -0.01500
Br506      Br  0.48427245  0.03001631  0.77278170    -0.01600
Br507      Br  0.11510430  0.14855809  0.74356900    -0.01600
Br508      Br  0.05019096  0.15238575  0.74167260    -0.01500
C509        C  0.34764589  0.14266028  0.75018595    -0.02700
C510        C  0.35503765  0.12040182  0.75596062     0.07000
C511        C  0.33169154  0.09144250  0.76192996    -0.02800
C512        C  0.30064019  0.08410292  0.76085599    -0.02800
C513        C  0.29324385  0.10594897  0.75401191     0.07100
C514        C  0.31704879  0.13563997  0.74941097    -0.03000
Br515      Br  0.30854704  0.16759980  0.74202993    -0.01500
Br516      Br  0.37946031  0.18304223  0.74275228    -0.01600
Br517      Br  0.26845225  0.04369619  0.76746022    -0.01600
Br518      Br  0.34209972  0.06141359  0.77041671    -0.01500
C519        C  0.21674886  0.07944092  0.83386618    -0.02700
C520        C  0.20497492  0.06019459  0.81849608     0.07000
C521        C  0.20663379  0.03312071  0.81771512    -0.02800
C522        C  0.21914922  0.02478947  0.83261167    -0.02800
C523        C  0.22946042  0.04317191  0.84865248     0.07100
C524        C  0.22955961  0.07142787  0.84869766    -0.03000
Br525      Br  0.24741679  0.10030222  0.86845381    -0.01500
Br526      Br  0.21384204  0.11631249  0.83485604    -0.01600
Br527      Br  0.22490122  0.98976486  0.83006690    -0.01600
Br528      Br  0.19260243  0.00791115  0.79594526    -0.01500
C529        C  0.41599203  0.30712405  0.92303774    -0.02700
C530        C  0.39287090  0.29512295  0.90936233     0.07000
C531        C  0.39801255  0.28228486  0.89330523    -0.02800
C532        C  0.42325219  0.27719758  0.89263461    -0.02800
C533        C  0.44124597  0.28181685  0.90856146     0.07100
C534        C  0.43958897  0.29977780  0.92289727    -0.03000
Br535      Br  0.46987399  0.31464692  0.94231899    -0.01500
Br536      Br  0.41514496  0.33330260  0.94211151    -0.01600
Br537      Br  0.43293118  0.26412481  0.86999347    -0.01600
Br538      Br  0.36943960  0.26821904  0.87287342    -0.01500
C539        C  0.13897611  0.23030289  0.89974506    -0.02700
C540        C  0.16242043  0.24839665  0.91255500     0.07000
C541        C  0.15498271  0.26179715  0.92737603    -0.02800
C542        C  0.12539202  0.25851529  0.92854040    -0.02800
C543        C  0.10470035  0.24624903  0.91359957     0.07100
C544        C  0.11069032  0.23001622  0.89995621    -0.03000
Br545      Br  0.07975334  0.20699479  0.88161378    -0.01500
Br546      Br  0.14555757  0.20627623  0.88158221    -0.01600
Br547      Br  0.11345007  0.27064538  0.95068961    -0.01600
Br548      Br  0.18601924  0.28905352  0.94460460    -0.01500
C549        C  0.24810013  0.13460970  0.91173632    -0.02700
C550        C  0.27037921  0.12807356  0.91899052     0.07000
C551        C  0.29977711  0.15244911  0.92389715    -0.02800
C552        C  0.30737025  0.18271791  0.92042461    -0.02800
C553        C  0.28502694  0.18941611  0.91366439     0.07100
C554        C  0.25540926  0.16535805  0.90913859    -0.03000
Br555      Br  0.22447344  0.17455783  0.90061140    -0.01500
Br556      Br  0.20663025  0.10174221  0.90781732    -0.01600
Br557      Br  0.34871164  0.21551649  0.92552940    -0.01600
Br558      Br  0.32994477  0.14555113  0.93648809    -0.01500
C559        C  0.28304489  0.38508193  0.91669690    -0.02700
C560        C  0.25886083  0.35843229  0.90864572     0.07000
C561        C  0.23395907  0.35990377  0.90036615    -0.02800
C562        C  0.23446365  0.38788321  0.89869317    -0.02800
C563        C  0.25948912  0.41496624  0.90562183     0.07100
C564        C  0.28324996  0.41330766  0.91529570    -0.03000
Br565      Br  0.31671654  0.44983013  0.92589085    -0.01500
Br566      Br  0.31634910  0.38323854  0.92887375    -0.01600
Br567      Br  0.19966476  0.38841052  0.88740660    -0.01600
Br568      Br  0.19798611  0.32333067  0.89149721    -0.01500
C569        C  0.04516550  0.44683375  0.76638936    -0.02700
C570        C  0.02342469  0.44524259  0.75326935     0.07000
C571        C  0.03406671  0.46586841  0.73820680    -0.02800
C572        C  0.06476704  0.49053869  0.73791417    -0.02800
C573        C  0.08527380  0.49449352  0.75259262     0.07100
C574        C  0.07583889  0.47096875  0.76586974    -0.03000
Br575      Br  0.10506361  0.47219648  0.78376572    -0.01500
Br576      Br  0.03327343  0.41573185  0.78522354    -0.01600
Br577      Br  0.08131466  0.01527881  0.71966322    -0.01600
Br578      Br  0.50807516  0.46090478  0.71811306    -0.01500
C579        C  0.29981644  0.22916400  0.77473924    -0.02700
C580        C  0.30560659  0.24789992  0.75902974     0.07000
C581        C  0.28260204  0.23849204  0.74531740    -0.02800
C582        C  0.25698788  0.20881897  0.74586625    -0.02800
C583        C  0.25589329  0.18740267  0.75895724     0.07100
C584        C  0.27642260  0.19822740  0.77414413    -0.03000
Br585      Br  0.27630532  0.17069454  0.79283147    -0.01500
Br586      Br  0.32348290  0.24512723  0.79701882    -0.01600
Br587      Br  0.22395230  0.19725053  0.72826367    -0.01600
Br588      Br  0.28622967  0.26602036  0.72559847    -0.01500
C589        C  0.41808917  0.46157965  0.73719713    -0.02700
C590        C  0.40539746  0.44010438  0.75170907     0.08800
C591        C  0.38859617  0.44549266  0.76529677    -0.02800
C592        C  0.38975337  0.47411395  0.76650589    -0.02800
C593        C  0.40768461  0.49806659  0.75401048     0.07100
C594        C  0.41958810  0.49051762  0.73835333    -0.03000
Br595      Br  0.44044531  0.01892231  0.71883581    -0.01500
Br596      Br  0.43372945  0.45160392  0.71580144    -0.01600
Br597      Br  0.36613714  0.48002829  0.78527675    -0.01600
Br598      Br  0.36336506  0.41298005  0.78217549    -0.01500
C599        C  0.43310251  0.22617187  0.77725917    -0.02700
C600        C  0.45391629  0.22688218  0.76393756     0.07000
C601        C  0.46732469  0.25196894  0.75164911    -0.02800
C602        C  0.45698558  0.27342157  0.75092953    -0.02800
C603        C  0.43264531  0.26986941  0.76224166     0.07100
C604        C  0.42225907  0.24734407  0.77625099    -0.03000
Br605      Br  0.39102519  0.24332933  0.79296678    -0.01500
Br606      Br  0.41644960  0.19405677  0.79556250    -0.01600
Br607      Br  0.47593826  0.30765304  0.73415253    -0.01600
Br608      Br  0.49893100  0.25594599  0.73504506    -0.01500
C609        C  0.37711209  0.34042060  0.83728657    -0.02700
C610        C  0.36694812  0.33552512  0.81889715     0.07000
C611        C  0.33511553  0.32006976  0.81505547    -0.02800
C612        C  0.31372636  0.30626434  0.82941247    -0.02800
C613        C  0.32405058  0.30946317  0.84780743     0.07100
C614        C  0.35558351  0.32903272  0.85166396    -0.03000
Br615      Br  0.36891807  0.34497745  0.87606206    -0.01500
Br616      Br  0.42049550  0.36250277  0.84279736    -0.01600
Br617      Br  0.27035224  0.28371370  0.82385815    -0.01600
Br618      Br  0.32071015  0.31955803  0.79031815    -0.01500
C619        C  0.23638426  0.01167373  0.00459819    -0.02700
C620        C  0.25896902  0.01447297  0.01729136     0.07000
C621        C  0.28611612  0.01594974  0.01099998    -0.02800
C622        C  0.28985713  0.01277075  0.99212316    -0.02800
C623        C  0.26616515  0.00751878  0.97958334     0.07100
C624        C  0.24004605  0.00845868  0.98573885    -0.03000
Br625      Br  0.21008122  0.00720517  0.96840296    -0.01500
Br626      Br  0.20008333  0.01162957  0.01329642    -0.01600
Br627      Br  0.32716253  0.01492525  0.98346571    -0.01600
Br628      Br  0.31736837  0.02059156  0.02833122    -0.01500
C629        C  0.19761868  0.48994944  0.16764643    -0.02700
C630        C  0.18707886  0.48547233  0.14929181     0.07000
C631        C  0.15525220  0.47261674  0.14586953    -0.02800
C632        C  0.13403170  0.46193905  0.16055307    -0.02800
C633        C  0.14459361  0.46589004  0.17891341     0.07100
C634        C  0.17662274  0.48172596  0.18231279    -0.03000
Br635      Br  0.19211914  0.49541174  0.20679818    -0.01500
Br636      Br  0.25022742  0.01852772  0.17461006    -0.01600
Br637      Br  0.09050994  0.44166727  0.15552411    -0.01600
Br638      Br  0.14089031  0.47145130  0.12112885    -0.01500
C639        C  0.22584329  0.23927331  0.00814752    -0.02700
C640        C  0.25131286  0.25456597  0.02023255     0.07000
C641        C  0.27981353  0.27712432  0.01307754    -0.02800
C642        C  0.28317932  0.28306877  0.99400741    -0.02800
C643        C  0.25797304  0.26723734  0.98194952     0.07100
C644        C  0.22922863  0.24561762  0.98907812    -0.03000
Br645      Br  0.19498869  0.22362677  0.97246158    -0.01500
Br646      Br  0.18649336  0.20851482  0.01742146    -0.01600
Br647      Br  0.32263359  0.31285628  0.98419705    -0.01600
Br648      Br  0.31392125  0.30144633  0.02941204    -0.01500
C649        C  0.24044169  0.40150124  0.10713825    -0.02700
C650        C  0.25307649  0.42215591  0.09207699     0.07000
C651        C  0.27318075  0.41876472  0.08001329    -0.02800
C652        C  0.27498955  0.39183965  0.08042282    -0.02800
C653        C  0.25718824  0.36841000  0.09302722     0.07100
C654        C  0.24177894  0.37415739  0.10725326    -0.03000
Br655      Br  0.21941059  0.34325637  0.12559704    -0.01500
Br656      Br  0.21894907  0.40844689  0.12687193    -0.01600
Br657      Br  0.30106506  0.38639528  0.06320481    -0.01600
Br658      Br  0.29790823  0.45057617  0.06255862    -0.01500
C659        C  0.28659300  0.13090759  0.09402010    -0.02700
C660        C  0.26041563  0.10448689  0.08705622     0.07000
C661        C  0.23682480  0.10785840  0.07859961    -0.02800
C662        C  0.23771690  0.13649621  0.07923532    -0.02800
C663        C  0.26229959  0.16179136  0.08824072     0.07100
C664        C  0.28742747  0.15913194  0.09468460    -0.03000
Br665      Br  0.32386240  0.19447008  0.10425175    -0.01500
Br666      Br  0.32240606  0.12933379  0.10245848    -0.01600
Br667      Br  0.20462588  0.14055585  0.06862816    -0.01600
Br668      Br  0.20301220  0.07326098  0.06674070    -0.01500
C669        C  0.43352383  0.38854377  0.23475241    -0.02700
C670        C  0.42681939  0.40479248  0.24799920     0.07000
C671        C  0.44758510  0.41855800  0.26277038    -0.02800
C672        C  0.47755945  0.42268481  0.26174255    -0.02800
C673        C  0.48633625  0.41185326  0.24619804     0.07100
C674        C  0.46297152  0.39159767  0.23407586    -0.03000
Br675      Br  0.47077464  0.36676595  0.21720612    -0.01500
Br676      Br  0.40223518  0.36228889  0.21739675    -0.01600
Br677      Br  0.00548633  0.44310316  0.28223059    -0.01600
Br678      Br  0.43541117  0.43226249  0.28420286    -0.01500
C679        C  0.21402357  0.42768793  0.22304714    -0.02700
C680        C  0.20745664  0.43865592  0.23933099     0.07000
C681        C  0.23001735  0.45128513  0.25326414    -0.02800
C682        C  0.25557781  0.44712336  0.25265492    -0.02800
C683        C  0.25824044  0.42957601  0.23847819     0.07100
C684        C  0.23981435  0.42348708  0.22256245    -0.03000
Br685      Br  0.24950349  0.40954277  0.20029054    -0.01500
Br686      Br  0.18709349  0.41630416  0.20191534    -0.01600
Br687      Br  0.28711858  0.46548936  0.27123875    -0.01600
Br688      Br  0.22568956  0.47376760  0.27341627    -0.01500
C689        C  0.31249963  0.34758848  0.14795087    -0.02700
C690        C  0.29500088  0.31621382  0.15269480     0.07000
C691        C  0.29195882  0.30774598  0.17141171    -0.02800
C692        C  0.30642176  0.33029735  0.18515379    -0.02800
C693        C  0.32158044  0.36171732  0.18050400     0.07100
C694        C  0.32502802  0.37025333  0.16180674    -0.03000
Br695      Br  0.34743111  0.41303509  0.15524576    -0.01500
Br696      Br  0.32077892  0.35968167  0.12250064    -0.01600
Br697      Br  0.30828811  0.31796143  0.21006702    -0.01600
Br698      Br  0.26732854  0.26527939  0.17827363    -0.01500
C699        C  0.11897533  0.07903432  0.23411905    -0.02700
C700        C  0.10100026  0.08375560  0.24719187     0.07000
C701        C  0.08925764  0.06328178  0.26231398    -0.02800
C702        C  0.09050037  0.03579846  0.26236077    -0.02800
C703        C  0.10323653  0.02845157  0.24725467     0.07100
C704        C  0.11941906  0.05126399  0.23383993    -0.03000
Br705      Br  0.14219995  0.04451219  0.21487476    -0.01500
Br706      Br  0.14421616  0.11126400  0.21701853    -0.01600
Br707      Br  0.07979868  0.50861059  0.28263121    -0.01600
Br708      Br  0.07069879  0.07178685  0.28288434    -0.01500
C709        C  0.08795609  0.32397650  0.22200732    -0.02700
C710        C  0.08102205  0.33560611  0.23786101     0.07000
C711        C  0.06086047  0.31456814  0.25105048    -0.02800
C712        C  0.05446335  0.28408740  0.25088932    -0.02800
C713        C  0.06738463  0.27431060  0.23724114     0.07100
C714        C  0.08067667  0.29302438  0.22162335    -0.03000
Br715      Br  0.09008030  0.27693876  0.20014333    -0.01500
Br716      Br  0.10856667  0.34999138  0.20123676    -0.01600
Br717      Br  0.02858430  0.25566985  0.26957640    -0.01600
Br718      Br  0.04197534  0.32738348  0.26939039    -0.01500
C719        C  0.45395221  0.03297532  0.26130987    -0.02700
C720        C  0.43430290  0.02229605  0.24563913     0.07000
C721        C  0.43824715  0.04380042  0.23168886    -0.02800
C722        C  0.46431880  0.07331686  0.23179498    -0.02800
C723        C  0.48612242  0.08236600  0.24619814     0.07100
C724        C  0.47877302  0.06345377  0.26190527    -0.03000
Br725      Br  0.50240267  0.07917554  0.28423598    -0.01500
Br726      Br  0.44964522  0.00578246  0.28130385    -0.01600
Br727      Br  0.97110825  0.10027702  0.21138081    -0.01600
Br728      Br  0.40802992  0.03349947  0.21229886    -0.01500
C729        C  0.18468172  0.27575295  0.22248896    -0.02700
C730        C  0.17303977  0.25489151  0.23729259     0.07000
C731        C  0.19374405  0.25522330  0.25066430    -0.02800
C732        C  0.22355476  0.28046384  0.25198765    -0.02800
C733        C  0.23349762  0.30461457  0.23912761     0.07100
C734        C  0.21496712  0.30075404  0.22340541    -0.03000
Br735      Br  0.22925971  0.33071466  0.20387231    -0.01500
Br736      Br  0.15925240  0.27094867  0.20133289    -0.01600
Br737      Br  0.25013060  0.28227344  0.27192882    -0.01600
Br738      Br  0.18099029  0.22083824  0.26717193    -0.01500
C739        C  0.99941102  0.23117320  0.00646880    -0.02700
C740        C  0.00006524  0.25413382  0.01779490     0.07000
C741        C  0.50032956  0.28047354  0.00936951    -0.02800
C742        C  0.51187319  0.28825827  0.99132450    -0.02800
C743        C  0.01844407  0.26698613  0.98050323     0.07100
C744        C  0.00840854  0.23753264  0.98786563    -0.03000
Br745      Br  0.00628852  0.20565756  0.97223232    -0.01500
Br746      Br  0.98792613  0.19154027  0.01676858    -0.01600
Br747      Br  0.52026764  0.32692383  0.98089437    -0.01600
Br748      Br  0.48710277  0.30527275  0.02221399    -0.01500
C749        C  0.14633494  0.24263356  0.11062099    -0.02700
C750        C  0.15981755  0.23630899  0.09560100     0.07000
C751        C  0.14048395  0.21603705  0.08186823    -0.02800
C752        C  0.11000138  0.20970910  0.08019645    -0.02800
C753        C  0.09852001  0.22266387  0.09283324     0.07100
C754        C  0.11553096  0.23588151  0.10929550    -0.03000
Br755      Br  0.09899929  0.24822548  0.12936410    -0.01500
Br756      Br  0.17005601  0.26156250  0.13253843    -0.01600
Br757      Br  0.08452665  0.18408621  0.06033607    -0.01600
Br758      Br  0.15632850  0.19760658  0.06520977    -0.01500
C759        C  0.40526049  0.27994856  0.09779147    -0.02700
C760        C  0.40624072  0.25862781  0.08556055     0.07000
C761        C  0.38479404  0.24747375  0.07078903    -0.02800
C762        C  0.35960436  0.25284819  0.07042563    -0.02800
C763        C  0.35634752  0.27048705  0.08440772     0.07100
C764        C  0.38096603  0.28645169  0.09679983    -0.03000
Br765      Br  0.38081040  0.31716364  0.11250782    -0.01500
Br766      Br  0.43728561  0.30070595  0.11594269    -0.01600
Br767      Br  0.32815379  0.23333863  0.05177959    -0.01600
Br768      Br  0.38830695  0.22320334  0.05157133    -0.01500
C769        C  0.08392635  0.35124893  0.09258299    -0.02700
C770        C  0.09141536  0.32780037  0.09099585     0.07000
C771        C  0.12209654  0.33573318  0.08792188    -0.02800
C772        C  0.14451829  0.36622844  0.08466585    -0.02800
C773        C  0.13756018  0.39020560  0.08626433     0.07100
C774        C  0.10696207  0.38242043  0.09028365    -0.03000
Br775      Br  0.09540617  0.41349920  0.08936740    -0.01500
Br776      Br  0.04175655  0.34031860  0.09647207    -0.01600
Br777      Br  0.18350260  0.37326515  0.07561569    -0.01600
Br778      Br  0.13325448  0.30408486  0.08692665    -0.01500
C779        C  0.36258999  0.10583954  0.06997233    -0.02700
C780        C  0.35414542  0.08664001  0.08584220     0.07000
C781        C  0.37684466  0.09334310  0.09950864    -0.02800
C782        C  0.40461248  0.12154102  0.09927033    -0.02800
C783        C  0.41047256  0.14325048  0.08517296     0.07100
C784        C  0.39087653  0.13383104  0.06960608    -0.03000
Br785      Br  0.40188385  0.15960319  0.04803639    -0.01500
Br786      Br  0.33520692  0.09594847  0.04907330    -0.01600
Br787      Br  0.43481557  0.13046803  0.11843817    -0.01600
Br788      Br  0.37020606  0.06386294  0.11864669    -0.01500
C789        C  0.01975130  0.19406254  0.18362822    -0.02700
C790        C  0.03870057  0.18152399  0.17949407     0.07000
C791        C  0.04192177  0.17543488  0.16099440    -0.02800
C792        C  0.02801376  0.18371686  0.14681906    -0.02800
C793        C  0.01347736  0.20089854  0.15085998     0.07100
C794        C  0.00841318  0.20502439  0.16939915    -0.03000
Br795      Br  0.48767807  0.22864477  0.17607255    -0.01500
Br796      Br  0.00666056  0.19336055  0.20856561    -0.01600
Br797      Br  0.02599829  0.16853213  0.12228116    -0.01600
Br798      Br  0.06557582  0.15602167  0.15507020    -0.01500
C799        C  0.39591512  0.33121472  0.65826707    -0.02700
C800        C  0.42125681  0.33383806  0.64842566     0.07000
C801        C  0.44918084  0.34279929  0.65790777    -0.02800
C802        C  0.45221906  0.35053949  0.67671089    -0.02800
C803        C  0.42716702  0.34860736  0.68637629     0.07100
C804        C  0.39875270  0.33807930  0.67725169    -0.03000
Br805      Br  0.36346501  0.33224336  0.69099957    -0.01500
Br806      Br  0.35774439  0.31970255  0.64564361    -0.01600
Br807      Br  0.49069961  0.36369058  0.68943567    -0.01600
Br808      Br  0.48302399  0.34313094  0.64537825    -0.01500
C809        C  0.32813104  0.44353528  0.34284251    -0.02700
C810        C  0.32964946  0.41984415  0.35231252     0.07000
C811        C  0.33711859  0.40033706  0.34248858    -0.02800
C812        C  0.34225047  0.40398408  0.32330010    -0.02800
C813        C  0.34038181  0.42747144  0.31374315     0.07100
C814        C  0.33361051  0.44743447  0.32369167    -0.03000
Br815      Br  0.33371632  0.48137553  0.31131431    -0.01500
Br816      Br  0.31889556  0.47086443  0.35630573    -0.01600
Br817      Br  0.35105473  0.37621817  0.30997591    -0.01600
Br818      Br  0.34100797  0.36894344  0.35553090    -0.01500
C819        C  0.36878605  0.39540675  0.49954287    -0.02700
C820        C  0.34493742  0.37446953  0.48801738     0.07000
C821        C  0.33436944  0.34291025  0.49045741    -0.02800
C822        C  0.34846048  0.33252951  0.50340752    -0.02800
C823        C  0.37294020  0.35356098  0.51488805     0.07100
C824        C  0.38366077  0.38543799  0.51210530    -0.03000
Br825      Br  0.42044755  0.41716495  0.52364931    -0.01500
Br826      Br  0.37971805  0.43812385  0.49910989    -0.01600
Br827      Br  0.33573848  0.28935688  0.50336568    -0.01600
Br828      Br  0.30050535  0.31319816  0.47600242    -0.01500
C829        C  0.17501526  0.11745048  0.65682941    -0.02700
C830        C  0.17400509  0.09167049  0.64872107     0.07000
C831        C  0.16925163  0.06659222  0.65972171    -0.02800
C832        C  0.16602050  0.06746116  0.67888116    -0.02800
C833        C  0.16609171  0.09288734  0.68696196     0.07100
C834        C  0.17057259  0.11787023  0.67588923    -0.03000
Br835      Br  0.16982282  0.15234646  0.68682868    -0.01500
Br836      Br  0.18250285  0.15210300  0.64175104    -0.01600
Br837      Br  0.16364133  0.03476995  0.69407914    -0.01600
Br838      Br  0.16656914  0.03077257  0.64832811    -0.01500
C839        C  0.02816960  0.41138121  0.58459099    -0.02700
C840        C  0.00693629  0.41020360  0.57133184     0.07000
C841        C  0.01849939  0.42876019  0.55548332    -0.02800
C842        C  0.04843487  0.45447123  0.55585773    -0.02800
C843        C  0.06776057  0.45931509  0.57126543     0.07100
C844        C  0.05861537  0.43572514  0.58448069    -0.03000
Br845      Br  0.08730578  0.43765929  0.60307208    -0.01500
Br846      Br  0.01549440  0.37938370  0.60274513    -0.01600
Br847      Br  0.06082142  0.48438278  0.53637425    -0.01600
Br848      Br  0.49410830  0.41799734  0.53327964    -0.01500
C849        C  0.30047236  0.22720060  0.59739556    -0.02700
C850        C  0.30862622  0.24742800  0.58222385     0.07000
C851        C  0.28622721  0.24051584  0.56832281    -0.02800
C852        C  0.25888903  0.21179966  0.56789227    -0.02800
C853        C  0.25376123  0.18893473  0.58108184     0.07100
C854        C  0.27385356  0.19766444  0.59659196    -0.03000
Br855      Br  0.26720433  0.16886115  0.61614529    -0.01500
Br856      Br  0.32536058  0.23990318  0.61936357    -0.01600
Br857      Br  0.22833158  0.20416502  0.54917603    -0.01600
Br858      Br  0.29304505  0.27086334  0.54979322    -0.01500
C859        C  0.05989560  0.39256534  0.34196008    -0.02700
C860        C  0.08457988  0.41520347  0.35230324     0.07000
C861        C  0.10795541  0.44113902  0.34324792    -0.02800
C862        C  0.10693312  0.44404473  0.32394501    -0.02800
C863        C  0.08251540  0.42109558  0.31359573     0.07100
C864        C  0.05879295  0.39559492  0.32270309    -0.03000
Br865      Br  0.02419262  0.36540976  0.30875519    -0.01500
Br866      Br  0.02791280  0.35698620  0.35422213    -0.01600
Br867      Br  0.13913383  0.47931590  0.31155932    -0.01600
Br868      Br  0.14078550  0.47323596  0.35739884    -0.01500
C869        C  0.98234062  0.41690987  0.44259232    -0.02700
C870        C  0.99410849  0.41137243  0.42624918     0.07000
C871        C  0.47250944  0.39248581  0.41262950    -0.02800
C872        C  0.44175453  0.38540584  0.41352763    -0.02800
C873        C  0.43207592  0.39720899  0.42788880     0.07100
C874        C  0.45123072  0.40950865  0.44351579    -0.03000
Br875      Br  0.43512344  0.41609381  0.46599449    -0.01500
Br876      Br  0.00813112  0.43501954  0.46391444    -0.01600
Br877      Br  0.41270163  0.36015221  0.39474760    -0.01600
Br878      Br  0.48469888  0.37549320  0.39277038    -0.01500
C879        C  0.19636961  0.42666274  0.40522781    -0.02700
C880        C  0.18850116  0.43664075  0.42145330     0.07000
C881        C  0.21024861  0.44852199  0.43600804    -0.02800
C882        C  0.23670822  0.44562665  0.43558663    -0.02800
C883        C  0.24168099  0.43063466  0.42073418     0.07100
C884        C  0.22385673  0.42537367  0.40455734    -0.03000
Br885      Br  0.23737657  0.41827641  0.38123109    -0.01500
Br886      Br  0.16820478  0.41084156  0.38465293    -0.01600
Br887      Br  0.26716680  0.46388612  0.45495784    -0.01600
Br888      Br  0.20331082  0.46746958  0.45716061    -0.01500
C889        C  0.14136872  0.01771669  0.48187954    -0.02700
C890        C  0.12883034  0.48528253  0.48430473     0.07000
C891        C  0.13057633  0.47659508  0.50258855    -0.02800
C892        C  0.14057603  0.99841838  0.51827303    -0.02800
C893        C  0.14913522  0.02923677  0.51468627     0.07100
C894        C  0.14985044  0.03889283  0.49641547    -0.03000
Br895      Br  0.16214808  0.08110812  0.49138067    -0.01500
Br896      Br  0.15031306  0.03275328  0.45699453    -0.01600
Br897      Br  0.15197724  0.48805634  0.54047709    -0.01600
Br898      Br  0.11533924  0.43413409  0.50861762    -0.01500
C899        C  0.05869432  0.17757415  0.34006066    -0.02700
C900        C  0.08190202  0.17915543  0.35182481     0.07000
C901        C  0.10802401  0.17997785  0.34421552    -0.02800
C902        C  0.11016807  0.17762141  0.32498338    -0.02800
C903        C  0.08602076  0.17409595  0.31329862     0.07100
C904        C  0.06088666  0.17538962  0.32085566    -0.03000
Br905      Br  0.03027033  0.17583592  0.30480985    -0.01500
Br906      Br  0.02380417  0.17833859  0.35047183    -0.01600
Br907      Br  0.14606022  0.17897915  0.31460991    -0.01600
Br908      Br  0.14046089  0.18368580  0.36025076    -0.01500
C909        C  0.10033144  0.05761631  0.40704785    -0.02700
C910        C  0.09033711  0.03663398  0.42184498     0.07000
C911        C  0.07991422  0.04375601  0.43812595    -0.02800
C912        C  0.07555184  0.06932736  0.43855485    -0.02800
C913        C  0.07997614  0.08688952  0.42235080     0.07100
C914        C  0.09568950  0.08289803  0.40743764    -0.03000
Br915      Br  0.11229327  0.11255847  0.38767292    -0.01500
Br916      Br  0.12004680  0.05165829  0.38589937    -0.01600
Br917      Br  0.06419689  0.07974368  0.46163927    -0.01600
Br918      Br  0.06743499  0.51372236  0.45901020    -0.01500
C919        C  0.06407690  0.27290788  0.41367800    -0.02700
C920        C  0.08572069  0.26849097  0.42388862     0.07000
C921        C  0.11084631  0.29430173  0.43234233    -0.02800
C922        C  0.11298057  0.32307667  0.43176537    -0.02800
C923        C  0.08979461  0.32682122  0.42327040     0.07100
C924        C  0.06602241  0.30205856  0.41349513    -0.03000
Br925      Br  0.03562694  0.30787421  0.40056600    -0.01500
Br926      Br  0.03105742  0.23907358  0.40078478    -0.01600
Br927      Br  0.14885935  0.35790395  0.44229891    -0.01600
Br928      Br  0.14367472  0.29159302  0.44484196    -0.01500
C929        C  0.18286068  0.28228087  0.40749175    -0.02700
C930        C  0.17988395  0.25748748  0.41827754     0.07000
C931        C  0.20653883  0.25983491  0.42650788    -0.02800
C932        C  0.23502362  0.28745141  0.42521939    -0.02800
C933        C  0.23672144  0.31385803  0.41727567     0.07100
C934        C  0.21069469  0.31057540  0.40766925    -0.03000
Br935      Br  0.21204835  0.34544846  0.39607028    -0.01500
Br936      Br  0.14813667  0.27867372  0.39368906    -0.01600
Br937      Br  0.27224180  0.28879832  0.43296827    -0.01600
Br938      Br  0.20394100  0.22521016  0.43954324    -0.01500
C939        C  0.41212033  0.02402083  0.41754290    -0.02700
C940        C  0.41425144  0.00364411  0.43008828     0.07000
C941        C  0.43575190  0.01588905  0.44464938    -0.02800
C942        C  0.45757697  0.04751563  0.44501706    -0.02800
C943        C  0.45902867  0.06656475  0.43021180     0.07100
C944        C  0.43461765  0.05520050  0.41739933    -0.03000
Br945      Br  0.43268996  0.08228777  0.39915651    -0.01500
Br946      Br  0.37850356  0.00907604  0.40028644    -0.01600
Br947      Br  0.98644588  0.06097818  0.46547878    -0.01600
Br948      Br  0.43258677  0.48900799  0.46205144    -0.01500
C949        C  0.39273386  0.07576013  0.66063195    -0.02700
C950        C  0.41802519  0.08933032  0.64867914     0.07000
C951        C  0.44814153  0.10348561  0.65604306    -0.02800
C952        C  0.45292829  0.10549636  0.67522999    -0.02800
C953        C  0.42768263  0.09214671  0.68719304     0.07100
C954        C  0.39755522  0.07683824  0.67984829    -0.03000
Br955      Br  0.36294371  0.05779312  0.69629330    -0.01500
Br956      Br  0.35165762  0.05596641  0.65059435    -0.01600
Br957      Br  0.49397962  0.12876113  0.68526100    -0.01600
Br958      Br  0.48306654  0.12077078  0.63983047    -0.01500
C959        C  0.40759476  0.21855135  0.59473221    -0.02700
C960        C  0.42021858  0.24030889  0.58031745     0.07000
C961        C  0.44119962  0.23854810  0.56817089    -0.02800
C962        C  0.44608906  0.21328385  0.56889367    -0.02800
C963        C  0.42977504  0.18923911  0.58155620     0.07100
C964        C  0.41172707  0.19277542  0.59510050    -0.03000
Br965      Br  0.38879097  0.16030935  0.61259630    -0.01500
Br966      Br  0.38294548  0.22241376  0.61349020    -0.01600
Br967      Br  0.47429658  0.21081395  0.55197287    -0.01600
Br968      Br  0.46385490  0.27102976  0.55065788    -0.01500
C969        C  0.39648080  0.48076755  0.58041768    -0.02700
C970        C  0.41506655  0.00118369  0.57135084     0.07000
C971        C  0.43282873  0.99327491  0.56022487    -0.02800
C972        C  0.44072113  0.46962137  0.56454244    -0.02800
C973        C  0.41512773  0.44557300  0.57334131     0.07100
C974        C  0.39188769  0.45073367  0.58008803    -0.03000
Br975      Br  0.35481817  0.41691152  0.58976630    -0.01500
Br976      Br  0.36731533  0.48881130  0.59270365    -0.01600
Br977      Br  0.47522931  0.46513283  0.55787109    -0.01600
Br978      Br  0.45789048  0.01972360  0.54095296    -0.01500
C979        C  0.29248106  0.11572286  0.57147847    -0.02700
C980        C  0.26566056  0.08979465  0.57808833     0.07000
C981        C  0.26800967  0.06507764  0.58560193    -0.02800
C982        C  0.29671879  0.06582394  0.58556177    -0.02800
C983        C  0.32281069  0.09093620  0.57760011     0.07100
C984        C  0.32047682  0.11604201  0.57094600    -0.03000
Br985      Br  0.35568523  0.15162781  0.56073971    -0.01500
Br986      Br  0.29172848  0.15181078  0.56295699    -0.01600
Br987      Br  0.29995578  0.03193174  0.59538290    -0.01600
Br988      Br  0.23175999  0.02966287  0.59476326    -0.01500
C989        C  0.05641338  0.10740294  0.59427952    -0.02700
C990        C  0.03504710  0.09817515  0.57974614     0.07000
C991        C  0.04060860  0.08652061  0.56347994    -0.02800
C992        C  0.06185517  0.07610112  0.56379224    -0.02800
C993        C  0.08091729  0.08200887  0.57936874     0.07100
C994        C  0.08047270  0.10094139  0.59351911    -0.03000
Br995      Br  0.11302182  0.11869919  0.61158733    -0.01500
Br996      Br  0.05271686  0.12888419  0.61516617    -0.01600
Br997      Br  0.06183944  0.05106114  0.54375605    -0.01600
Br998      Br  0.52177761  0.08739033  0.53921809    -0.01500
C999        C  0.01477699  0.14792562  0.52116958    -0.02700
C1000       C  0.48331258  0.13488371  0.51689625     0.07000
C1001       C  0.47365399  0.13318389  0.49847510    -0.02800
C1002       C  0.99438905  0.14406284  0.48479180    -0.02800
C1003       C  0.02553138  0.15331972  0.48825973     0.07100
C1004       C  0.03575982  0.15558175  0.50657252    -0.03000
Br1005     Br  0.07835433  0.16886016  0.51162135    -0.01500
Br1006     Br  0.03030934  0.16037361  0.54580622    -0.01600
Br1007     Br  0.48282503  0.14984918  0.45995045    -0.01600
Br1008     Br  0.43046588  0.11410974  0.49264559    -0.01500
O1009       O  0.42038549  0.56555694  0.62209743    -0.81700
O1010       O  0.46402184  0.60444350  0.54249563    -0.66400
O1011       O  0.45239916  0.60450974  0.59419045    -1.13000
C1012       C  0.35503443  0.59323412  0.57639763     1.05200
O1013       O  0.44539196  0.63538153  0.53681667    -0.79600
O1014       O  0.41826068  0.65190733  0.56304779    -0.67200
Ni1015     Ni  0.45810903  0.57735536  0.60994110     1.34900
C1016       C  0.42626650  0.66041408  0.57958151     0.83900
O1017       O  0.99955567  0.61078202  0.57119166    -0.80200
O1018       O  0.99671891  0.58809870  0.59837292    -0.90400
C1019       C  0.46342961  0.62526052  0.53287420     0.83500
O1020       O  0.43657892  0.54141589  0.59562218    -0.68600
O1021       O  0.36537553  0.59755093  0.55993448    -0.87900
C1022       C  0.43424390  0.53709626  0.57841418     0.84300
C1023       C  0.01100701  0.60144050  0.58364364     1.05900
H1024       H  0.40337985  0.57303589  0.56438562     0.37700
O1025       O  0.41653286  0.59451448  0.56708292    -1.10600
O1026       O  0.42810904  0.64317927  0.59188561    -0.67200
Ni1027     Ni  0.41174853  0.59919922  0.59287803     1.26300
O1028       O  0.44314334  0.55890509  0.56677182    -0.67500
O1029       O  0.37050582  0.59335914  0.59058072    -0.79800
C1030       C  0.41586150  0.58554010  0.62948852     0.83700
O1031       O  0.41043121  0.60298144  0.61930375    -0.66900
Ni1032     Ni  0.40586014  0.61544355  0.54933062     1.27400
Ni1033     Ni  0.45817220  0.60270771  0.56852505     1.26100
H1034       H  0.46653333  0.62510284  0.59825553     0.38200
O1035       O  0.06910241  0.64472489  0.37943131    -0.81700
O1036       O  0.04687970  0.64263155  0.46246965    -0.66400
O1037       O  0.04678313  0.65663078  0.41095627    -1.13000
C1038       C  0.15182889  0.73345976  0.42217883     1.05200
O1039       O  0.06995323  0.69237935  0.46857597    -0.79600
O1040       O  0.09552210  0.73663964  0.44258297    -0.67200
Ni1041     Ni  0.03271858  0.62388294  0.39373146     1.34900
C1042       C  0.08687859  0.74030159  0.42678271     0.83900
O1043       O  0.00433165  0.61372437  0.43640903    -0.80200
O1044       O  0.99532710  0.59961786  0.40680876    -0.90400
C1045       C  0.05009076  0.66468815  0.47248116     0.83500
O1046       O  0.05048676  0.60214394  0.40474606    -0.68600
O1047       O  0.14509881  0.72911980  0.43940659    -0.87900
C1048       C  0.06163018  0.60244141  0.42048409     0.84300
C1049       C  0.98707744  0.59609201  0.42360074     1.05900
H1050       H  0.10126487  0.66887582  0.43591725     0.37700
O1051       O  0.08888845  0.67862295  0.43515472    -1.10600
O1052       O  0.07982167  0.72107322  0.41359518    -0.67200
Ni1053     Ni  0.08928830  0.68831591  0.40975320     1.26300
O1054       O  0.06074450  0.61815897  0.43386195    -0.67500
O1055       O  0.13228865  0.71908464  0.40937854    -0.79800
C1056       C  0.08001644  0.67146365  0.37305657     0.83700
O1057       O  0.08727305  0.69409132  0.38366472    -0.66900
Ni1058     Ni  0.10678471  0.70929580  0.45329345     1.27400
Ni1059     Ni  0.04648629  0.64717778  0.43639781     1.26100
H1060       H  0.03410279  0.66592625  0.40935586     0.38200
O1061       O  0.05773145  0.91650431  0.38213524    -0.81700
O1062       O  0.09344715  0.96068420  0.46135271    -0.66400
O1063       O  0.09617503  0.95076662  0.40978561    -1.13000
C1064       C  0.09169410  0.85720545  0.42755362     1.05200
O1065       O  0.12884209  0.94741070  0.46659094    -0.79600
O1066       O  0.14834677  0.92179326  0.44112211    -0.67200
Ni1067     Ni  0.06857716  0.95469510  0.39339249     1.34900
C1068       C  0.15683638  0.93046716  0.42470615     0.83900
O1069       O  0.09653506  0.49435997  0.43163858    -0.80200
O1070       O  0.07983641  0.49442575  0.40286582    -0.90400
C1071       C  0.11627197  0.96331319  0.47051217     0.83500
O1072       O  0.03252950  0.93394047  0.40763547    -0.68600
O1073       O  0.09613450  0.86744542  0.44408494    -0.87900
C1074       C  0.02680357  0.92752140  0.42453122     0.84300
C1075       C  0.08948871  0.50674266  0.41863509     1.05900
H1076       H  0.06751912  0.90087337  0.43939121     0.37700
O1077       O  0.08875295  0.91567838  0.43678216    -1.10600
O1078       O  0.13876608  0.93096139  0.41234550    -0.67200
Ni1079     Ni  0.09407613  0.91171996  0.41113201     1.26300
O1080       O  0.04793854  0.93547268  0.43662933    -0.67500
O1081       O  0.09099645  0.87216083  0.41344759    -0.79800
C1082       C  0.07815952  0.91264214  0.37465867     0.83700
O1083       O  0.09752631  0.91002584  0.38479220    -0.66900
Ni1084     Ni  0.11143825  0.90761797  0.45462442     1.27400
Ni1085     Ni  0.09257193  0.95535981  0.43537060     1.26100
H1086       H  0.11667470  0.96596989  0.40615988     0.38200
O1087       O  0.14198007  0.56568725  0.62432384    -0.81700
O1088       O  0.13866796  0.55004644  0.53855264    -0.66400
O1089       O  0.15451845  0.54957039  0.58997411    -1.13000
C1090       C  0.22945471  0.65440360  0.57717818     1.05200
O1091       O  0.18800343  0.56960942  0.53234523    -0.79600
O1092       O  0.23302526  0.59482178  0.55845716    -0.67200
Ni1093     Ni  0.12089978  0.53370523  0.60699925     1.34900
C1094       C  0.23717876  0.58848050  0.57480491     0.83900
O1095       O  0.11289247  0.50685430  0.56363440    -0.80200
O1096       O  0.09502445  0.49902920  0.59224510    -0.90400
C1097       C  0.15977077  0.55160966  0.52836355     0.83500
O1098       O  0.10266771  0.55601186  0.59752292    -0.68600
O1099       O  0.22701319  0.64543493  0.56041206    -0.87900
C1100       C  0.10189476  0.56650237  0.58176456     0.84300
C1101       C  0.09377960  0.49018482  0.57581180     1.05900
H1102       H  0.16561119  0.60354307  0.56397473     0.37700
O1103       O  0.17535428  0.59124783  0.56537352    -1.10600
O1104       O  0.21886414  0.58449315  0.58803642    -0.67200
Ni1105     Ni  0.18497637  0.59270082  0.59086272     1.26300
O1106       O  0.11478509  0.56267600  0.56776546    -0.67500
O1107       O  0.21433213  0.63628049  0.59043694    -0.79800
C1108       C  0.16991720  0.58220617  0.62868924     0.83700
O1109       O  0.19154282  0.59239657  0.61698065    -0.66900
Ni1110     Ni  0.20634265  0.60687930  0.54722248     1.27400
Ni1111     Ni  0.14454111  0.54920623  0.56437757     1.26100
H1112       H  0.16471828  0.53765281  0.59146220     0.38200
O1113       O  0.36031294  0.94180876  0.38274396    -0.81700
O1114       O  0.35491853  0.90829697  0.46356387    -0.66400
O1115       O  0.34694569  0.90159541  0.41149398    -1.13000
C1116       C  0.26290591  0.91816875  0.42280499     1.05200
O1117       O  0.30603225  0.87408996  0.46754196    -0.79600
O1118       O  0.26476517  0.85327853  0.43856312    -0.67200
Ni1119     Ni  0.38171836  0.92558401  0.39626218     1.34900
C1120       C  0.26469454  0.84622100  0.42175199     0.83900
O1121       O  0.38722502  0.89945987  0.43791094    -0.80200
O1122       O  0.40550358  0.91113026  0.40907727    -0.90400
C1123       C  0.33412669  0.88666704  0.47289502     0.83500
O1124       O  0.40051342  0.96276650  0.40979852    -0.68600
O1125       O  0.26263021  0.90713302  0.43887658    -0.87900
C1126       C  0.39721137  0.97024266  0.42587655     0.84300
C1127       C  0.40627007  0.90222074  0.42546624     1.05900
H1128       H  0.32592010  0.93456832  0.43891041     0.37700
O1129       O  0.31875274  0.91331715  0.43611968    -1.10600
O1130       O  0.28281975  0.86541199  0.40980325    -0.67200
Ni1131     Ni  0.31311160  0.90928775  0.40995400     1.26300
O1132       O  0.37988344  0.95070784  0.43778841    -0.67500
O1133       O  0.28052814  0.91920686  0.40981293    -0.79800
C1134       C  0.33575070  0.92441854  0.37422341     0.83700
O1135       O  0.31162556  0.90688261  0.38331694    -0.66900
Ni1136     Ni  0.28522727  0.89085169  0.45220566     1.27400
Ni1137     Ni  0.35279387  0.90644372  0.43746841     1.26100
H1138       H  0.33957447  0.88033398  0.40861440     0.38200
O1139       O  0.43614517  0.85866565  0.62085116    -0.81700
O1140       O  0.40895791  0.86022825  0.53933248    -0.66400
O1141       O  0.39918806  0.85135248  0.59128869    -1.13000
C1142       C  0.40939029  0.76378126  0.57947523     1.05200
O1143       O  0.37184668  0.81297095  0.53536861    -0.79600
O1144       O  0.34938504  0.76870915  0.56223311    -0.67200
Ni1145     Ni  0.42489685  0.88407431  0.60736960     1.34900
C1146       C  0.33983108  0.76967401  0.57823528     0.83900
O1147       O  0.40419923  0.89500506  0.56528803    -0.80200
O1148       O  0.41543237  0.91173371  0.59461783    -0.90400
C1149       C  0.38571790  0.84105552  0.53018678     0.83500
O1150       O  0.46289144  0.89942079  0.59479605    -0.68600
O1151       O  0.40269638  0.76641378  0.56264621    -0.87900
C1152       C  0.47071941  0.89614646  0.57879603     0.84300
C1153       C  0.40864256  0.91424511  0.57798960     1.05900
H1154       H  0.43044350  0.82740102  0.56518521     0.37700
O1155       O  0.40921407  0.82176180  0.56693763    -1.10600
O1156       O  0.35738443  0.78824286  0.59068096    -0.67200
Ni1157     Ni  0.40205020  0.81474881  0.59271049     1.26300
O1158       O  0.45103681  0.88128480  0.56625631    -0.67500
O1159       O  0.40758743  0.77944224  0.59277912    -0.79800
C1160       C  0.41627820  0.83472391  0.62881842     0.83700
O1161       O  0.39709084  0.81196325  0.61924723    -0.66900
Ni1162     Ni  0.38765202  0.79032677  0.54966197     1.27400
Ni1163     Ni  0.40628386  0.85792708  0.56551968     1.26100
H1164       H  0.37819965  0.84615485  0.59362763     0.38200
O1165       O  0.02548343  0.77325731  0.04987396    -0.81700
O1166       O  0.02672803  0.74448276  0.12924379    -0.66400
O1167       O  0.01464109  0.73367606  0.07780737    -1.13000
C1168       C  0.42944042  0.74770806  0.09005688     1.05200
O1169       O  0.47878126  0.70942390  0.13355900    -0.79600
O1170       O  0.43457957  0.68676568  0.10668907    -0.67200
Ni1171     Ni  0.04792724  0.75674341  0.06164481     1.34900
C1172       C  0.43401521  0.67765722  0.09035008     0.83900
O1173       O  0.05861380  0.73698993  0.10300026    -0.80200
O1174       O  0.07217869  0.74170934  0.07327745    -0.90400
C1175       C  0.00746645  0.72174024  0.13850496     0.83500
O1176       O  0.06934141  0.79430147  0.07476234    -0.68600
O1177       O  0.43149054  0.73928608  0.10650228    -0.87900
C1178       C  0.06514336  0.80351008  0.09008201     0.84300
C1179       C  0.07577775  0.73698568  0.09017624     1.05900
H1180       H  0.99315296  0.76621127  0.10519463     0.37700
O1181       O  0.48732554  0.74611191  0.10192935    -1.10600
O1182       O  0.45117192  0.69564366  0.07757926    -0.67200
Ni1183     Ni  0.48002958  0.73987721  0.07610423     1.26300
O1184       O  0.04693672  0.78522344  0.10215412    -0.67500
O1185       O  0.44604765  0.74795026  0.07657364    -0.79800
C1186       C  0.00121906  0.75596362  0.04113827     0.83700
O1187       O  0.47779468  0.73677334  0.04929659    -0.66900
Ni1188     Ni  0.45590326  0.72481947  0.11927662     1.27400
Ni1189     Ni  0.02250951  0.74084496  0.10334639     1.26100
H1190       H  0.00777351  0.71231445  0.07557316     0.38200
O1191       O  0.11175683  0.69060335  0.28800921    -0.81700
O1192       O  0.08017153  0.70290939  0.20822330    -0.66400
O1193       O  0.07418465  0.68736295  0.25982188    -1.13000
C1194       C  0.08592280  0.60243709  0.24169456     1.05200
O1195       O  0.04583853  0.65432996  0.20216845    -0.79600
O1196       O  0.02547376  0.60768365  0.22737293    -0.67200
Ni1197     Ni  0.10039811  0.71796789  0.27699840     1.34900
C1198       C  0.01623648  0.60681398  0.24372600     0.83900
O1199       O  0.07797134  0.73454335  0.23715418    -0.80200
O1200       O  0.09125238  0.74784318  0.26680459    -0.90400
C1201       C  0.05819985  0.68293938  0.19847713     0.83500
O1202       O  0.13740732  0.73420917  0.26340980    -0.68600
O1203       O  0.07915362  0.60698985  0.22531869    -0.87900
C1204       C  0.14433203  0.73362027  0.24671988     0.84300
C1205       C  0.08430983  0.75285011  0.25071994     1.05900
H1206       H  0.10513940  0.66810618  0.23053961     0.37700
O1207       O  0.08382672  0.66154906  0.23282337    -1.10600
O1208       O  0.03369782  0.62446795  0.25646641    -0.67200
Ni1209     Ni  0.07806339  0.65128649  0.25828643     1.26300
O1210       O  0.12411211  0.72086648  0.23416869    -0.67500
O1211       O  0.08453357  0.61690121  0.25573199    -0.79800
C1212       C  0.09150118  0.66586756  0.29503962     0.83700
O1213       O  0.07329504  0.64432828  0.28448165    -0.66900
Ni1214     Ni  0.06302905  0.63156499  0.21454903     1.27400
Ni1215     Ni  0.07962947  0.69727570  0.23430727     1.26100
H1216       H  0.05324443  0.68134912  0.26295852     0.38200
O1217       O  0.32035532  0.91663925  0.28946292    -0.81700
O1218       O  0.31151283  0.88793838  0.20734316    -0.66400
O1219       O  0.32735463  0.88987427  0.25859398    -1.13000
C1220       C  0.41097178  0.98903897  0.24298990     1.05200
O1221       O  0.35961049  0.90069997  0.20135724    -0.79600
O1222       O  0.40639529  0.92478678  0.22648211    -0.67200
Ni1223     Ni  0.29541962  0.88006462  0.27596289     1.34900
C1224       C  0.40761353  0.91543052  0.24254286     0.83900
O1225       O  0.28224547  0.84855548  0.23405124    -0.80200
O1226       O  0.26774192  0.84270106  0.26354174    -0.90400
C1227       C  0.33091796  0.88540258  0.19758125     0.83500
O1228       O  0.27688122  0.90090065  0.26461949    -0.68600
O1229       O  0.40689275  0.97864799  0.22649102    -0.87900
C1230       C  0.27809088  0.91182012  0.24870603     0.84300
C1231       C  0.26435237  0.83292720  0.24704421     1.05900
H1232       H  0.34520534  0.94360595  0.23133172     0.37700
O1233       O  0.35225547  0.92906651  0.23304449    -1.10600
O1234       O  0.39031470  0.91468525  0.25559716    -0.67200
Ni1235     Ni  0.36232989  0.93069281  0.25847605     1.26300
O1236       O  0.29220094  0.90785826  0.23544679    -0.67500
O1237       O  0.39625147  0.97243323  0.25689727    -0.79800
C1238       C  0.34668666  0.92408697  0.29570915     0.83700
O1239       O  0.36874321  0.93016272  0.28477232    -0.66900
Ni1240     Ni  0.38235744  0.93944554  0.21465762     1.27400
Ni1241     Ni  0.31750219  0.88886570  0.23319043     1.26100
H1242       H  0.33447821  0.87542476  0.26054575     0.38200
O1243       O  0.22977039  0.75901371  0.04817711    -0.81700
O1244       O  0.26186049  0.79538183  0.12848322    -0.66400
O1245       O  0.26750532  0.78921577  0.07677207    -1.13000
C1246       C  0.25795201  0.69218357  0.09243774     1.05200
O1247       O  0.29596106  0.78050935  0.13374440    -0.79600
O1248       O  0.31540976  0.75523793  0.10771663    -0.67200
Ni1249     Ni  0.24197226  0.79657423  0.06039338     1.34900
C1250       C  0.32432976  0.76350057  0.09130138     0.83900
O1251       O  0.26727967  0.83211582  0.10079868    -0.80200
O1252       O  0.25272523  0.83479830  0.07188126    -0.90400
C1253       C  0.28403987  0.79697397  0.13783100     0.83500
O1254       O  0.20479425  0.77590156  0.07375459    -0.68600
O1255       O  0.26195783  0.70170431  0.10915035    -0.87900
C1256       C  0.19820422  0.76751062  0.09035431     0.84300
C1257       C  0.26225260  0.84619385  0.08783914     1.05900
H1258       H  0.23569997  0.73731056  0.10501863     0.37700
O1259       O  0.25713263  0.75165615  0.10281984    -1.10600
O1260       O  0.30735620  0.76565229  0.07881391    -0.67200
Ni1261     Ni  0.26307348  0.74893491  0.07709583     1.26300
O1262       O  0.21846770  0.77345021  0.10270053    -0.67500
O1263       O  0.25787046  0.70809639  0.07858324    -0.79800
C1264       C  0.24971919  0.75453193  0.04065088     0.83700
O1265       O  0.26738955  0.74901765  0.05064165    -0.66900
Ni1266     Ni  0.27802042  0.74141121  0.12068890     1.27400
Ni1267     Ni  0.26271494  0.79210216  0.10242661     1.26100
H1268       H  0.28853413  0.80391643  0.07371938     0.38200
O1269       O  0.23093822  0.97933728  0.03981437    -0.81700
O1270       O  0.21123921  0.97572108  0.12629732    -0.66400
O1271       O  0.21614051  0.99003051  0.07455913    -1.13000
C1272       C  0.31833011  0.56696540  0.08961199     1.05200
O1273       O  0.22852479  0.52219400  0.13059562    -0.79600
O1274       O  0.25860901  0.56909680  0.10607413    -0.67200
Ni1275     Ni  0.20462916  0.95503576  0.05916702     1.34900
C1276       C  0.25164991  0.57349530  0.08992822     0.83900
O1277       O  0.17062467  0.95042408  0.09919090    -0.80200
O1278       O  0.17493361  0.92511131  0.07567169    -0.90400
C1279       C  0.20903737  0.49400513  0.13367696     0.83500
O1280       O  0.23629448  0.94919594  0.06930057    -0.68600
O1281       O  0.30843911  0.56131710  0.10628814    -0.87900
C1282       C  0.23867606  0.94345343  0.08609469     0.84300
C1283       C  0.16008399  0.92666285  0.08926044     1.05900
H1284       H  0.26660426  0.50256792  0.10015226     0.37700
O1285       O  0.25365284  0.51157021  0.09864118    -1.10600
O1286       O  0.24585797  0.55448536  0.07665311    -0.67200
Ni1287     Ni  0.25823044  0.52326476  0.07340090     1.26300
O1288       O  0.22533563  0.94985275  0.09879271    -0.67500
O1289       O  0.30056293  0.55500809  0.07574544    -0.79800
C1290       C  0.25716658  0.51076767  0.03613864     0.83700
O1291       O  0.26014371  0.53138603  0.04734678    -0.66900
Ni1292     Ni  0.26784796  0.54072103  0.11765334     1.27400
Ni1293     Ni  0.21333609  0.98105971  0.10030352     1.26100
H1294       H  0.20304295  0.49587051  0.06787525     0.38200
O1295       O  0.09716870  0.90801482  0.29060616    -0.81700
O1296       O  0.13454474  0.93933234  0.20902577    -0.66400
O1297       O  0.12561884  0.94496654  0.26041847    -1.13000
C1298       C  0.02464120  0.92306550  0.24292194     1.05200
O1299       O  0.11453516  0.96887833  0.20251943    -0.79600
O1300       O  0.08637600  0.98602456  0.22763799    -0.67200
Ni1301     Ni  0.13437015  0.92117972  0.27725909     1.34900
C1302       C  0.09575070  0.99622121  0.24373721     0.83900
O1303       O  0.17231361  0.95069408  0.23717080    -0.80200
O1304       O  0.17255673  0.93180278  0.26512373    -0.90400
C1305       C  0.13326317  0.95936384  0.19905238     0.83500
O1306       O  0.11307417  0.88341758  0.26473552    -0.68600
O1307       O  0.03498852  0.92983912  0.22645556    -0.87900
C1308       C  0.10969569  0.87681434  0.24783392     0.84300
C1309       C  0.18544294  0.94367396  0.24977567     1.05900
H1310       H  0.07575336  0.90830564  0.23143753     0.37700
O1311       O  0.08812861  0.93006819  0.23355639    -1.10600
O1312       O  0.09785590  0.97989851  0.25657698    -0.67200
Ni1313     Ni  0.08401731  0.93639273  0.25899004     1.26300
O1314       O  0.11720568  0.89683523  0.23509777    -0.67500
O1315       O  0.04174404  0.92609856  0.25676677    -0.79800
C1316       C  0.08704311  0.92499649  0.29618263     0.83700
O1317       O  0.08202560  0.94155534  0.28503582    -0.66900
Ni1318     Ni  0.07525097  0.94861547  0.21532396     1.27400
Ni1319     Ni  0.13024284  0.94044835  0.23486810     1.26100
H1320       H  0.13881379  0.96622995  0.26361966     0.38200
O1321       O  0.42709010  0.82880289  0.71529532    -0.81700
O1322       O  0.39200847  0.82613159  0.79512850    -0.66400
O1323       O  0.39573249  0.83628097  0.74334467    -1.13000
C1324       C  0.49415500  0.92088610  0.75781336     1.05200
O1325       O  0.40615590  0.87500675  0.79952113    -0.79600
O1326       O  0.42971883  0.91877766  0.77310897    -0.67200
Ni1327     Ni  0.38916795  0.80354223  0.72749167     1.34900
C1328       C  0.41941556  0.91804795  0.75700543     0.83900
O1329       O  0.35364131  0.79368056  0.76795169    -0.80200
O1330       O  0.35077133  0.77651597  0.73908123    -0.90400
C1331       C  0.39045096  0.84684401  0.80408797     0.83500
O1332       O  0.40978060  0.78665912  0.74111501    -0.68600
O1333       O  0.48399397  0.91880268  0.77421156    -0.87900
C1334       C  0.41839106  0.78845972  0.75771727     0.84300
C1335       C  0.33923664  0.77490818  0.75495023     1.05900
H1336       H  0.44870638  0.85730884  0.77124803     0.37700
O1337       O  0.43408638  0.86412572  0.76894282    -1.10600
O1338       O  0.41862992  0.89963649  0.74455420    -0.67200
Ni1339     Ni  0.43575519  0.87196641  0.74314871     1.26300
O1340       O  0.41299085  0.80345869  0.76978173    -0.67500
O1341       O  0.47707682  0.90588914  0.74417715    -0.79800
C1342       C  0.43162404  0.85284374  0.70707818     0.83700
O1343       O  0.43531416  0.87563883  0.71659335    -0.66900
Ni1344     Ni  0.44472047  0.89600695  0.78615286     1.27400
Ni1345     Ni  0.39392882  0.82911847  0.76908943     1.26100
H1346       H  0.38065426  0.84219174  0.74020295     0.38200
O1347       O  0.28105343  0.75736320  0.95851739    -0.81700
O1348       O  0.30845788  0.77869497  0.87431028    -0.66400
O1349       O  0.30184133  0.78979251  0.92548189    -1.13000
C1350       C  0.19676575  0.75603113  0.90947712     1.05200
O1351       O  0.28314782  0.80276305  0.86673803    -0.79600
O1352       O  0.25350260  0.81822850  0.89096893    -0.67200
Ni1353     Ni  0.31635333  0.77184580  0.94330490     1.34900
C1354       C  0.26010574  0.82986179  0.90691125     0.83900
O1355       O  0.34876850  0.79624974  0.90141430    -0.80200
O1356       O  0.35374321  0.78384397  0.93023082    -0.90400
C1357       C  0.30451254  0.79667202  0.86385017     0.83500
O1358       O  0.29752616  0.73229190  0.93279941    -0.68600
O1359       O  0.20572148  0.76071553  0.89268182    -0.87900
C1360       C  0.29314980  0.72313797  0.91628471     0.84300
C1361       C  0.36432621  0.79283575  0.91412822     1.05900
H1362       H  0.25196470  0.74594133  0.89836124     0.37700
O1363       O  0.26240983  0.76787929  0.89952839    -1.10600
O1364       O  0.26551276  0.81717991  0.92067910    -0.67200
Ni1365     Ni  0.25851744  0.77575429  0.92469284     1.26300
O1366       O  0.29673312  0.74042408  0.90252711    -0.67500
O1367       O  0.21494003  0.76043617  0.92300803    -0.79800
C1368       C  0.26448526  0.76884682  0.96255821     0.83700
O1369       O  0.25661641  0.78228989  0.95061993    -0.66900
Ni1370     Ni  0.24519438  0.78069517  0.88048780     1.27400
Ni1371     Ni  0.30562710  0.78255309  0.90009469     1.26100
H1372       H  0.31289170  0.81167564  0.92748660     0.38200
O1373       O  0.19172888  0.62122425  0.71239675    -0.81700
O1374       O  0.20964137  0.59610791  0.79214300    -0.66400
O1375       O  0.19171803  0.58616923  0.74093201    -1.13000
C1376       C  0.10253077  0.58894916  0.76088852     1.05200
O1377       O  0.16346291  0.55686221  0.79783437    -0.79600
O1378       O  0.11397117  0.53393472  0.77379564    -0.67200
Ni1379     Ni  0.22110356  0.61241452  0.72329347     1.34900
C1380       C  0.11177569  0.52553097  0.75711751     0.83900
O1381       O  0.24104980  0.59379835  0.76353648    -0.80200
O1382       O  0.25295831  0.60629739  0.73368697    -0.90400
C1383       C  0.19207250  0.57289837  0.80176887     0.83500
O1384       O  0.23684567  0.64979645  0.73616352    -0.68600
O1385       O  0.10986066  0.58461186  0.77715253    -0.87900
C1386       C  0.23718382  0.65700595  0.75286203     0.84300
C1387       C  0.25951432  0.60156183  0.74997144     1.05900
H1388       H  0.17055400  0.61522220  0.77055909     0.37700
O1389       O  0.16540701  0.59436193  0.76813702    -1.10600
O1390       O  0.12935340  0.54317680  0.74451765    -0.67200
Ni1391     Ni  0.15402454  0.58747626  0.74288551     1.26300
O1392       O  0.22428515  0.63725462  0.76552507    -0.67500
O1393       O  0.11722128  0.59004747  0.74626068    -0.79800
C1394       C  0.16702747  0.59984430  0.70590061     0.83700
O1395       O  0.14612656  0.58191594  0.71683604    -0.66900
Ni1396     Ni  0.13737771  0.57143713  0.78679464     1.27400
Ni1397     Ni  0.20261227  0.59312445  0.76628468     1.26100
H1398       H  0.18671759  0.56537396  0.73806984     0.38200
O1399       O  0.29298645  0.53103120  0.95108319    -0.81700
O1400       O  0.26243992  0.55140883  0.87324759    -0.66400
O1401       O  0.25566299  0.53210919  0.92441788    -1.13000
C1402       C  0.25738745  0.94331649  0.90456121     1.05200
O1403       O  0.22302292  0.00344851  0.86950314    -0.79600
O1404       O  0.20174284  0.95413948  0.89281427    -0.67200
Ni1405     Ni  0.28314134  0.56046168  0.94204864     1.34900
C1406       C  0.19402225  0.95198608  0.90960521     0.83900
O1407       O  0.26012842  0.58102501  0.90368567    -0.80200
O1408       O  0.27502519  0.59167221  0.93345117    -0.90400
C1409       C  0.24078108  0.53296910  0.86276642     0.83500
O1410       O  0.31988608  0.57732309  0.92817889    -0.68600
O1411       O  0.25319631  0.95116492  0.88843436    -0.87900
C1412       C  0.32550551  0.57903653  0.91111657     0.84300
C1413       C  0.26835390  0.59859300  0.91782058     1.05900
H1414       H  0.28482529  0.51318713  0.89396720     0.37700
O1415       O  0.26172751  0.00630909  0.89839216    -1.10600
O1416       O  0.21184365  0.96956340  0.92213758    -0.67200
Ni1417     Ni  0.25601272  0.99395408  0.92349992     1.26300
O1418       O  0.30479732  0.56654949  0.89890909    -0.67500
O1419       O  0.25871036  0.95772929  0.91928629    -0.79800
C1420       C  0.27155309  0.50731020  0.95828030     0.83700
O1421       O  0.25177121  0.98532308  0.94947790    -0.66900
Ni1422     Ni  0.23889385  0.97822899  0.87965240     1.27400
Ni1423     Ni  0.26078210  0.54348723  0.89920858     1.26100
H1424       H  0.23512552  0.52699820  0.92790783     0.38200
O1425       O  0.49823032  0.76680385  0.95429562    -0.81700
O1426       O  0.49214415  0.73739791  0.87305208    -0.66400
O1427       O  0.50392264  0.73666548  0.92476518    -1.13000
C1428       C  0.09237888  0.83098508  0.91147381     1.05200
O1429       O  0.03795183  0.74368828  0.86933533    -0.79600
O1430       O  0.08329035  0.76386437  0.89537214    -0.67200
Ni1431     Ni  0.47209281  0.72970595  0.94144177     1.34900
C1432       C  0.08293847  0.75419783  0.91160595     0.83900
O1433       O  0.45892425  0.69873537  0.89950531    -0.80200
O1434       O  0.44429278  0.69209668  0.92926086    -0.90400
C1435       C  0.50992099  0.73183890  0.86358204     0.83500
O1436       O  0.45504793  0.75131341  0.92901392    -0.68600
O1437       O  0.08887232  0.82070769  0.89494507    -0.87900
C1438       C  0.45838521  0.76340315  0.91322165     0.84300
C1439       C  0.44106174  0.68317411  0.91254905     1.05900
H1440       H  0.02760085  0.79075661  0.89861184     0.37700
O1441       O  0.03260506  0.77475035  0.90058125    -1.10600
O1442       O  0.06601227  0.75535719  0.92432532    -0.67200
Ni1443     Ni  0.04073917  0.77483832  0.92631116     1.26300
O1444       O  0.47359214  0.75954964  0.90053926    -0.67500
O1445       O  0.07692090  0.81488899  0.92534204    -0.79800
C1446       C  0.02232702  0.76999307  0.96294790     0.83700
O1447       O  0.04458910  0.77316662  0.95296616    -0.66900
Ni1448     Ni  0.06280299  0.78202309  0.88284050     1.27400
Ni1449     Ni  0.49611266  0.73720215  0.89914103     1.26100
H1450       H  0.00862829  0.72005768  0.92769734     0.38200
O1451       O  0.42286055  0.62022532  0.71105988    -0.81700
O1452       O  0.43749958  0.63944234  0.79681604    -0.66400
O1453       O  0.45193695  0.63716339  0.74565299    -1.13000
C1454       C  0.41689264  0.53092273  0.75862707     1.05200
O1455       O  0.46143412  0.61418639  0.80448674    -0.79600
O1456       O  0.47893590  0.58671715  0.77907812    -0.67200
Ni1457     Ni  0.43463690  0.65297502  0.72818086     1.34900
C1458       C  0.49095058  0.59427113  0.76323918     0.83900
O1459       O  0.45834664  0.68261416  0.77120414    -0.80200
O1460       O  0.44424870  0.68827903  0.74285908    -0.90400
C1461       C  0.45474842  0.63508528  0.80772963     0.83500
O1462       O  0.39420378  0.63173526  0.73767469    -0.68600
O1463       O  0.42120073  0.53888129  0.77565437    -0.87900
C1464       C  0.38474605  0.62799005  0.75411859     0.84300
C1465       C  0.45323221  0.69802592  0.75912514     1.05900
H1466       H  0.40635363  0.58571693  0.77126010     0.37700
O1467       O  0.42830323  0.59594045  0.77045707    -1.10600
O1468       O  0.47854478  0.60042398  0.74966720    -0.67200
Ni1469     Ni  0.43738844  0.59377700  0.74525254     1.26300
O1470       O  0.40180188  0.63156526  0.76806049    -0.67500
O1471       O  0.42183348  0.55004080  0.74561610    -0.79800
C1472       C  0.43391945  0.60315987  0.70729260     0.83700
O1473       O  0.44545158  0.59360900  0.71948296    -0.66900
Ni1474     Ni  0.44049747  0.57740773  0.78914794     1.27400
Ni1475     Ni  0.44357157  0.63913648  0.77112843     1.26100
H1476       H  0.47422680  0.64834278  0.74398752     0.38200
C1477       C  0.50096913  0.67235714  0.82675511    -0.02700
C1478       C  0.46889782  0.65676538  0.82353021     0.07000
C1479       C  0.45087462  0.66619920  0.83313957    -0.02800
C1480       C  0.46467154  0.69267218  0.84416097    -0.02800
C1481       C  0.49666655  0.70795481  0.84832665     0.07100
C1482       C  0.01513628  0.69773207  0.83957337    -0.03000
Br1483     Br  0.05948738  0.72111128  0.84066661    -0.01500
Br1484     Br  0.02737239  0.66042555  0.81428770    -0.01600
Br1485     Br  0.43940475  0.71011018  0.84996458    -0.01600
Br1486     Br  0.40650963  0.64139175  0.83214024    -0.01500
C1487       C  0.13840519  0.91660925  0.90296233    -0.02700
C1488       C  0.16400416  0.92522212  0.91461200     0.07000
C1489       C  0.16316006  0.90392400  0.92774169    -0.02800
C1490       C  0.13902680  0.87330632  0.92736564    -0.02800
C1491       C  0.11519114  0.86389057  0.91424029     0.07100
C1492       C  0.11403925  0.88613312  0.90282861    -0.03000
Br1493     Br  0.07911603  0.87489853  0.88682556    -0.01500
Br1494     Br  0.13730727  0.94656713  0.88674200    -0.01600
Br1495     Br  0.14081506  0.84391649  0.94356339    -0.01600
Br1496     Br  0.19654010  0.91511142  0.94501845    -0.01500
C1497       C  0.41069953  0.62651905  0.91598563    -0.02700
C1498       C  0.41429113  0.65358878  0.90797487     0.07000
C1499       C  0.39084256  0.65270738  0.89684011    -0.02800
C1500       C  0.36349031  0.62499446  0.89426793    -0.02800
C1501       C  0.35746710  0.59968902  0.90550623     0.07100
C1502       C  0.38173054  0.59985635  0.91555438    -0.03000
Br1503     Br  0.37473834  0.56426233  0.92950297    -0.01500
Br1504     Br  0.44511317  0.62650561  0.92795203    -0.01600
Br1505     Br  0.33315622  0.62359770  0.87723045    -0.01600
Br1506     Br  0.39320564  0.69014431  0.88833059    -0.01500
C1507       C  0.01897513  0.56597164  0.76525946    -0.02700
C1508       C  0.01896442  0.59308645  0.76011091     0.07000
C1509       C  0.04628884  0.61842168  0.75365155    -0.02800
C1510       C  0.07376237  0.61702666  0.75313868    -0.02800
C1511       C  0.07384708  0.59033472  0.75914417     0.07100
C1512       C  0.04616081  0.56464797  0.76473133    -0.03000
Br1513     Br  0.04507765  0.52710989  0.77180154    -0.01500
Br1514     Br  0.48230945  0.52964996  0.77325917    -0.01600
Br1515     Br  0.11152598  0.65218148  0.74536820    -0.01600
Br1516     Br  0.04654381  0.65563700  0.74694883    -0.01500
C1517       C  0.34630177  0.64459467  0.75060745    -0.02700
C1518       C  0.35306864  0.62196041  0.75659171     0.07000
C1519       C  0.32903468  0.59304760  0.76213348    -0.02800
C1520       C  0.29817480  0.58634842  0.76069834    -0.02800
C1521       C  0.29143957  0.60837645  0.75336784     0.07100
C1522       C  0.31578552  0.63788940  0.74895749    -0.03000
Br1523     Br  0.30808006  0.66986709  0.74048998    -0.01500
Br1524     Br  0.37892111  0.68492756  0.74386414    -0.01600
Br1525     Br  0.26521456  0.54647524  0.76751948    -0.01600
Br1526     Br  0.33821611  0.56202076  0.77028373    -0.01500
C1527       C  0.22075193  0.58318987  0.83178164    -0.02700
C1528       C  0.20561291  0.56333271  0.81696462     0.07000
C1529       C  0.20506195  0.53510889  0.81614533    -0.02800
C1530       C  0.21766175  0.52583615  0.83062615    -0.02800
C1531       C  0.23104114  0.54473892  0.84632655     0.07100
C1532       C  0.23367114  0.57426604  0.84624350    -0.03000
Br1533     Br  0.25452105  0.60353796  0.86557011    -0.01500
Br1534     Br  0.22271744  0.62252391  0.83256545    -0.01600
Br1535     Br  0.21848509  0.48807452  0.82785533    -0.01600
Br1536     Br  0.18872389  0.50993010  0.79446844    -0.01500
C1537       C  0.41730957  0.80715222  0.92465012    -0.02700
C1538       C  0.39540455  0.79706233  0.91029863     0.07000
C1539       C  0.40154932  0.78555787  0.89406181    -0.02800
C1540       C  0.42635103  0.77969677  0.89372605    -0.02800
C1541       C  0.44271756  0.78191730  0.91007465     0.07100
C1542       C  0.44025242  0.79885078  0.92478809    -0.03000
Br1543     Br  0.46896811  0.81184230  0.94491777    -0.01500
Br1544     Br  0.41556999  0.83210690  0.94423127    -0.01600
Br1545     Br  0.43869053  0.77067108  0.87075989    -0.01600
Br1546     Br  0.37494062  0.77480535  0.87278650    -0.01500
C1547       C  0.14033746  0.72925467  0.90046113    -0.02700
C1548       C  0.16388963  0.74703994  0.91332395     0.07000
C1549       C  0.15601021  0.75877310  0.92889599    -0.02800
C1550       C  0.12646559  0.75569375  0.93021506    -0.02800
C1551       C  0.10548315  0.74342301  0.91543341     0.07100
C1552       C  0.11136068  0.72738474  0.90164905    -0.03000
Br1553     Br  0.07872973  0.70156119  0.88495057    -0.01500
Br1554     Br  0.14738900  0.70761443  0.88090661    -0.01600
Br1555     Br  0.11467459  0.76780122  0.95243385    -0.01600
Br1556     Br  0.18598279  0.78252388  0.94764326    -0.01500
C1557       C  0.25055955  0.63659428  0.91052071    -0.02700
C1558       C  0.27390134  0.63024351  0.91591597     0.07000
C1559       C  0.30351960  0.65474540  0.92023459    -0.02800
C1560       C  0.31000644  0.68505263  0.91854102    -0.02800
C1561       C  0.28671664  0.69151641  0.91353687     0.07100
C1562       C  0.25691694  0.66729145  0.90950428    -0.03000
Br1563     Br  0.22453740  0.67613138  0.90396544    -0.01500
Br1564     Br  0.20931381  0.60332761  0.90666464    -0.01600
Br1565     Br  0.35106975  0.71802364  0.92389466    -0.01600
Br1566     Br  0.33552878  0.64766938  0.92972348    -0.01500
C1567       C  0.28379370  0.88577282  0.91596890    -0.02700
C1568       C  0.25891756  0.85860172  0.90892917     0.07000
C1569       C  0.23312373  0.85937282  0.90148625    -0.02800
C1570       C  0.23324221  0.88716329  0.89972410    -0.02800
C1571       C  0.25838006  0.91449625  0.90632467     0.07100
C1572       C  0.28315753  0.91355499  0.91508619    -0.03000
Br1573     Br  0.31687903  0.95056710  0.92504260    -0.01500
Br1574     Br  0.31952969  0.88544112  0.92553799    -0.01600
Br1575     Br  0.19815259  0.88718878  0.88847371    -0.01600
Br1576     Br  0.19667343  0.82216543  0.89385412    -0.01500
C1577       C  0.04824958  0.94522869  0.76967828    -0.02700
C1578       C  0.02697329  0.94288385  0.75595632     0.07000
C1579       C  0.03818258  0.96182396  0.74014587    -0.02800
C1580       C  0.06872201  0.98646907  0.73983592    -0.02800
C1581       C  0.08870265  0.99136480  0.75490803     0.07100
C1582       C  0.07903058  0.96890576  0.76887686    -0.03000
Br1583     Br  0.10788796  0.97142080  0.78749389    -0.01500
Br1584     Br  0.03575380  0.91610712  0.78978312    -0.01600
Br1585     Br  0.07710671  0.52018993  0.71821168    -0.01600
Br1586     Br  0.51359604  0.95221658  0.71722112    -0.01500
C1587       C  0.30048658  0.73008528  0.77366972    -0.02700
C1588       C  0.30762280  0.74923078  0.75804754     0.07000
C1589       C  0.28556166  0.74094183  0.74385432    -0.02800
C1590       C  0.25919719  0.71182220  0.74388442    -0.02800
C1591       C  0.25586245  0.69004096  0.75738175     0.07100
C1592       C  0.27550568  0.69993405  0.77299959    -0.03000
Br1593     Br  0.27169300  0.67182367  0.79240115    -0.01500
Br1594     Br  0.32517250  0.74406623  0.79573084    -0.01600
Br1595     Br  0.22840031  0.70143709  0.72485410    -0.01600
Br1596     Br  0.29167437  0.76925987  0.72407139    -0.01500
C1597       C  0.42170590  0.96224253  0.73850951    -0.02700
C1598       C  0.40941533  0.94126514  0.75328852     0.08800
C1599       C  0.39297730  0.94692027  0.76701812    -0.02800
C1600       C  0.39361136  0.97529831  0.76779532    -0.02800
C1601       C  0.41025353  0.99846476  0.75461698     0.07100
C1602       C  0.42189110  0.99055012  0.73903287    -0.03000
Br1603     Br  0.43993615  0.51985223  0.71880474    -0.01500
Br1604     Br  0.44054851  0.95347648  0.71817323    -0.01600
Br1605     Br  0.37149879  0.98226580  0.78708704    -0.01600
Br1606     Br  0.36967629  0.91558526  0.78503357    -0.01500
C1607       C  0.43430700  0.72746321  0.77746472    -0.02700
C1608       C  0.45439999  0.72734684  0.76395570     0.07000
C1609       C  0.46840972  0.75230593  0.75167614    -0.02800
C1610       C  0.45885020  0.77432515  0.75099198    -0.02800
C1611       C  0.43516657  0.77171681  0.76261239     0.07100
C1612       C  0.42487058  0.74966410  0.77684652    -0.03000
Br1613     Br  0.39562260  0.74768399  0.79448485    -0.01500
Br1614     Br  0.41597489  0.69473061  0.79520406    -0.01600
Br1615     Br  0.47798686  0.80791879  0.73386327    -0.01600
Br1616     Br  0.49971496  0.75528554  0.73514948    -0.01500
C1617       C  0.37865198  0.84498980  0.83767560    -0.02700
C1618       C  0.36833681  0.83757173  0.81937493     0.07000
C1619       C  0.33652199  0.82056916  0.81567735    -0.02800
C1620       C  0.31555834  0.80681300  0.83017999    -0.02800
C1621       C  0.32612587  0.81216255  0.84853065     0.07100
C1622       C  0.35735372  0.83341443  0.85218016    -0.03000
Br1623     Br  0.37050349  0.84978612  0.87654467    -0.01500
Br1624     Br  0.42185392  0.87091326  0.84286021    -0.01600
Br1625     Br  0.27245819  0.78061738  0.82485608    -0.01600
Br1626     Br  0.32137741  0.81876310  0.79100957    -0.01500
C1627       C  0.24004610  0.51290149  0.00435286    -0.02700
C1628       C  0.26377759  0.51650553  0.01636487     0.07000
C1629       C  0.28979069  0.51647744  0.00925581    -0.02800
C1630       C  0.29182228  0.51226506  0.99028006    -0.02800
C1631       C  0.26741573  0.50719815  0.97836191     0.07100
C1632       C  0.24170611  0.50803756  0.98540817    -0.03000
Br1633     Br  0.20923142  0.50371836  0.96907867    -0.01500
Br1634     Br  0.20478327  0.51368062  0.01409194    -0.01600
Br1635     Br  0.32771425  0.51253556  0.98065559    -0.01600
Br1636     Br  0.32229362  0.52151140  0.02574808    -0.01500
C1637       C  0.20640367  0.99824883  0.17061809    -0.02700
C1638       C  0.19432309  0.99085701  0.15258882     0.07000
C1639       C  0.16217979  0.97653601  0.14998816    -0.02800
C1640       C  0.14227974  0.96567627  0.16516298    -0.02800
C1641       C  0.15427347  0.97210103  0.18315027     0.07100
C1642       C  0.18637476  0.99019265  0.18578928    -0.03000
Br1643     Br  0.20284306  0.00598857  0.20987365    -0.01500
Br1644     Br  0.24068940  0.50591072  0.17274643    -0.01600
Br1645     Br  0.09850632  0.94111752  0.16128741    -0.01600
Br1646     Br  0.14508612  0.97494227  0.12598917    -0.01500
C1647       C  0.23953818  0.73206705  0.00913325    -0.02700
C1648       C  0.25280545  0.75799409  0.02051419     0.07000
C1649       C  0.26544784  0.78752266  0.01262925    -0.02800
C1650       C  0.26642312  0.79114169  0.99335539    -0.02800
C1651       C  0.25470670  0.76522308  0.98191467     0.07100
C1652       C  0.24073736  0.73563498  0.98987487    -0.03000
Br1653     Br  0.22406777  0.69986838  0.97430141    -0.01500
Br1654     Br  0.21943683  0.69176650  0.02004106    -0.01600
Br1655     Br  0.28623860  0.83164988  0.98263245    -0.01600
Br1656     Br  0.28257873  0.82320980  0.02824643    -0.01500
C1657       C  0.24847984  0.90806135  0.10657779    -0.02700
C1658       C  0.25505473  0.92623566  0.09044603     0.07000
C1659       C  0.27445314  0.92432607  0.07709835    -0.02800
C1660       C  0.27981139  0.89951322  0.07735918    -0.02800
C1661       C  0.26660547  0.87707823  0.09120945     0.07100
C1662       C  0.25410831  0.88329278  0.10687408    -0.03000
Br1663     Br  0.24327464  0.85758055  0.12845576    -0.01500
Br1664     Br  0.23202178  0.91628812  0.12842042    -0.01600
Br1665     Br  0.30543508  0.89623708  0.05881416    -0.01600
Br1666     Br  0.29469741  0.95589768  0.05874752    -0.01500
C1667       C  0.27981238  0.63021361  0.09469087    -0.02700
C1668       C  0.25377651  0.60415880  0.08716993     0.07000
C1669       C  0.23009241  0.60813803  0.07930267    -0.02800
C1670       C  0.23156387  0.63713788  0.08023860    -0.02800
C1671       C  0.25645466  0.66212790  0.08928742     0.07100
C1672       C  0.28083536  0.65848895  0.09604512    -0.03000
Br1673     Br  0.31647041  0.69244306  0.10741375    -0.01500
Br1674     Br  0.31537084  0.62825426  0.10322573    -0.01600
Br1675     Br  0.19867802  0.64216500  0.07024476    -0.01600
Br1676     Br  0.19511406  0.57378220  0.06814495    -0.01500
C1677       C  0.44069750  0.89450513  0.23110084    -0.02700
C1678       C  0.43204311  0.90704848  0.24574394     0.07000
C1679       C  0.45058913  0.91645092  0.26181071    -0.02800
C1680       C  0.48014248  0.91937841  0.26162161    -0.02800
C1681       C  0.49112710  0.91242796  0.24539946     0.07100
C1682       C  0.46976223  0.89660133  0.23113398    -0.03000
Br1683     Br  0.47940335  0.87603239  0.21210238    -0.01500
Br1684     Br  0.41274270  0.87429620  0.21079183    -0.01600
Br1685     Br  0.00510202  0.93384489  0.28405209    -0.01600
Br1686     Br  0.43655307  0.92651305  0.28399886    -0.01500
C1687       C  0.22264517  0.93650911  0.22982533    -0.02700
C1688       C  0.21629081  0.94710099  0.24638989     0.07000
C1689       C  0.23713260  0.95501055  0.26120276    -0.02800
C1690       C  0.26004154  0.94671053  0.26092656    -0.02800
C1691       C  0.26163683  0.92945101  0.24604874     0.07100
C1692       C  0.24479439  0.92694108  0.22980366    -0.03000
Br1693     Br  0.24947398  0.90795935  0.20795715    -0.01500
Br1694     Br  0.19862329  0.93086261  0.20774319    -0.01600
Br1695     Br  0.28932536  0.95948741  0.28101621    -0.01600
Br1696     Br  0.23399754  0.97703574  0.28202645    -0.01500
C1697       C  0.31133856  0.85137610  0.14950185    -0.02700
C1698       C  0.29726898  0.81959508  0.15315289     0.07000
C1699       C  0.29617581  0.80974542  0.17149054    -0.02800
C1700       C  0.30826103  0.83134916  0.18594252    -0.02800
C1701       C  0.31978142  0.86281341  0.18232966     0.07100
C1702       C  0.32098789  0.87264548  0.16406022    -0.03000
Br1703     Br  0.33568138  0.91538488  0.15904421    -0.01500
Br1704     Br  0.32171043  0.86658068  0.12474245    -0.01600
Br1705     Br  0.31030073  0.81784575  0.21051962    -0.01600
Br1706     Br  0.27812063  0.76663561  0.17681305    -0.01500
C1707       C  0.11224930  0.57386542  0.23050983    -0.02700
C1708       C  0.09538430  0.57866022  0.24436683     0.07000
C1709       C  0.08696148  0.55968566  0.26029256    -0.02800
C1710       C  0.09053285  0.53354390  0.26070467    -0.02800
C1711       C  0.10143579  0.52552204  0.24505076     0.07100
C1712       C  0.11487065  0.54725651  0.23074660    -0.03000
Br1713     Br  0.13724971  0.54053881  0.21149561    -0.01500
Br1714     Br  0.13322581  0.60429137  0.21159114    -0.01600
Br1715     Br  0.07295964  0.00765771  0.28267983    -0.01600
Br1716     Br  0.06921689  0.56778061  0.28150334    -0.01500
C1717       C  0.12439659  0.83788979  0.24238707    -0.02700
C1718       C  0.10060739  0.84474602  0.24356115     0.07000
C1719       C  0.07020436  0.82065213  0.24631804    -0.02800
C1720       C  0.06405457  0.79002855  0.24809700    -0.02800
C1721       C  0.08839284  0.78365255  0.24721287     0.07100
C1722       C  0.11850480  0.80791634  0.24461600    -0.03000
Br1723     Br  0.15296839  0.80151395  0.24689196    -0.01500
Br1724     Br  0.16623263  0.87010427  0.24047412    -0.01600
Br1725     Br  0.02335865  0.75761410  0.25395939    -0.01600
Br1726     Br  0.03762475  0.83006758  0.24879881    -0.01500
C1727       C  0.45028610  0.53307636  0.26092035    -0.02700
C1728       C  0.43207166  0.52233109  0.24469338     0.07000
C1729       C  0.43686387  0.54382588  0.23059996    -0.02800
C1730       C  0.46209737  0.57383166  0.23151713    -0.02800
C1731       C  0.48384035  0.58246648  0.24595378     0.07100
C1732       C  0.47615496  0.56300439  0.26149737    -0.03000
Br1733     Br  0.50101094  0.57665109  0.28351110    -0.01500
Br1734     Br  0.44134015  0.50690863  0.28219508    -0.01600
Br1735     Br  0.96626985  0.60558110  0.21582141    -0.01600
Br1736     Br  0.40879408  0.53280186  0.20993874    -0.01500
C1737       C  0.18895171  0.77042152  0.22673548    -0.02700
C1738       C  0.17777282  0.75084654  0.24225744     0.07000
C1739       C  0.19894178  0.75319807  0.25597280    -0.02800
C1740       C  0.22864683  0.77875275  0.25647390    -0.02800
C1741       C  0.23759885  0.80208507  0.24311623     0.07100
C1742       C  0.21868718  0.79649622  0.22733492    -0.03000
Br1743     Br  0.23144850  0.82561892  0.20731451    -0.01500
Br1744     Br  0.16293371  0.76382642  0.20549072    -0.01600
Br1745     Br  0.25675679  0.78190897  0.27583875    -0.01600
Br1746     Br  0.18699664  0.72162189  0.27445747    -0.01500
C1747       C  0.01437550  0.73996105  0.01178554    -0.02700
C1748       C  0.00354473  0.75751509  0.02080406     0.07000
C1749       C  0.50335986  0.78104050  0.01075440    -0.02800
C1750       C  0.51368108  0.78827598  0.99242363    -0.02800
C1751       C  0.02264558  0.76962067  0.98344270     0.07100
C1752       C  0.02319212  0.74548740  0.99307789    -0.03000
Br1753     Br  0.03567882  0.71977143  0.98066416    -0.01500
Br1754     Br  0.01873797  0.70939434  0.02551906    -0.01600
Br1755     Br  0.51862706  0.82526408  0.98135958    -0.01600
Br1756     Br  0.48931834  0.80523369  0.02356175    -0.01500
C1757       C  0.15311590  0.75842906  0.11001052    -0.02700
C1758       C  0.16508240  0.75028207  0.09492634     0.07000
C1759       C  0.14450045  0.72815842  0.08235546    -0.02800
C1760       C  0.11343284  0.72018582  0.08221883    -0.02800
C1761       C  0.10282539  0.73377973  0.09496435     0.07100
C1762       C  0.12170910  0.74957873  0.11025018    -0.03000
Br1763     Br  0.10570830  0.76048401  0.13120311    -0.01500
Br1764     Br  0.17948523  0.78319152  0.12973491    -0.01600
Br1765     Br  0.08548328  0.69091303  0.06450438    -0.01600
Br1766     Br  0.15898466  0.70892905  0.06528466    -0.01500
C1767       C  0.40516597  0.77887727  0.09936143    -0.02700
C1768       C  0.40634062  0.75786866  0.08700059     0.07000
C1769       C  0.38345566  0.74451810  0.07320107    -0.02800
C1770       C  0.35774634  0.74896535  0.07326694    -0.02800
C1771       C  0.35515506  0.76769180  0.08679806     0.07100
C1772       C  0.37986444  0.78385712  0.09918874    -0.03000
Br1773     Br  0.37824938  0.81180380  0.11667204    -0.01500
Br1774     Br  0.43820548  0.80079733  0.11681300    -0.01600
Br1775     Br  0.32407851  0.72544717  0.05649744    -0.01600
Br1776     Br  0.38554497  0.71779651  0.05513938    -0.01500
C1777       C  0.08470283  0.85687941  0.07864482    -0.02700
C1778       C  0.08259250  0.83724985  0.09323923     0.07000
C1779       C  0.10074444  0.85028135  0.10918764    -0.02800
C1780       C  0.12455593  0.88127671  0.10897531    -0.02800
C1781       C  0.12987655  0.89916305  0.09291718     0.07100
C1782       C  0.10848171  0.88747664  0.07835034    -0.03000
Br1783     Br  0.11281271  0.91320667  0.05742056    -0.01500
Br1784     Br  0.05487976  0.84214573  0.05895253    -0.01600
Br1785     Br  0.15115548  0.89834380  0.13004984    -0.01600
Br1786     Br  0.09413072  0.82578366  0.13094380    -0.01500
C1787       C  0.36223906  0.60943192  0.07062208    -0.02700
C1788       C  0.35187804  0.59005639  0.08643617     0.07000
C1789       C  0.37386992  0.59490503  0.10021601    -0.02800
C1790       C  0.40231229  0.62251221  0.10073647    -0.02800
C1791       C  0.41036405  0.64472302  0.08659152     0.07100
C1792       C  0.39175082  0.63611963  0.07056254    -0.03000
Br1793     Br  0.40624586  0.66062442  0.04848682    -0.01500
Br1794     Br  0.33658898  0.60087160  0.04898340    -0.01600
Br1795     Br  0.43024285  0.62955783  0.12100896    -0.01600
Br1796     Br  0.36605718  0.56268815  0.11761430    -0.01500
C1797       C  0.03144535  0.71098401  0.18654158    -0.02700
C1798       C  0.04542403  0.69308770  0.18304093     0.07000
C1799       C  0.04616563  0.68413683  0.16475906    -0.02800
C1800       C  0.03207195  0.69190912  0.15039603    -0.02800
C1801       C  0.01912217  0.71068608  0.15391277     0.07100
C1802       C  0.01966934  0.72084514  0.17196777    -0.03000
Br1803     Br  0.50755231  0.75293387  0.17582366    -0.01500
Br1804     Br  0.02590672  0.72018467  0.21132378    -0.01600
Br1805     Br  0.03007251  0.67629898  0.12594979    -0.01600
Br1806     Br  0.06805235  0.66273212  0.15923472    -0.01500
C1807       C  0.40148289  0.84816908  0.65847839    -0.02700
C1808       C  0.41676906  0.83515559  0.64911970     0.07000
C1809       C  0.43923892  0.83128258  0.65845056    -0.02800
C1810       C  0.44641791  0.84032028  0.67697226    -0.02800
C1811       C  0.43013333  0.85196494  0.68667128     0.07100
C1812       C  0.40774948  0.85610362  0.67726813    -0.03000
Br1813     Br  0.38503187  0.87183662  0.69013791    -0.01500
Br1814     Br  0.37257937  0.85597904  0.64526028    -0.01600
Br1815     Br  0.48024024  0.83882038  0.68866056    -0.01600
Br1816     Br  0.46058140  0.81404702  0.64556835    -0.01500
C1817       C  0.34759773  0.95124759  0.34372584    -0.02700
C1818       C  0.33713864  0.92385763  0.35389099     0.07000
C1819       C  0.33398434  0.89759788  0.34501573    -0.02800
C1820       C  0.33956151  0.89833088  0.32596718    -0.02800
C1821       C  0.35009733  0.92576240  0.31589320     0.07100
C1822       C  0.35496448  0.95239961  0.32495210    -0.03000
Br1823     Br  0.37121741  0.99028434  0.31135957    -0.01500
Br1824     Br  0.34963748  0.98665365  0.35507450    -0.01600
Br1825     Br  0.33188035  0.86148628  0.31341856    -0.01600
Br1826     Br  0.32325018  0.86099138  0.35906576    -0.01500
C1827       C  0.37062323  0.89505707  0.49923153    -0.02700
C1828       C  0.34412182  0.87472827  0.48915036     0.07000
C1829       C  0.33092475  0.84303207  0.49283742    -0.02800
C1830       C  0.34555533  0.83183142  0.50490205    -0.02800
C1831       C  0.37274671  0.85225945  0.51478935     0.07100
C1832       C  0.38580395  0.88410505  0.51084181    -0.03000
Br1833     Br  0.42670757  0.91380030  0.51864314    -0.01500
Br1834     Br  0.38474292  0.93852297  0.49870276    -0.01600
Br1835     Br  0.32969239  0.78809759  0.50542342    -0.01600
Br1836     Br  0.29184124  0.81431721  0.48216090    -0.01500
C1837       C  0.17620854  0.61599842  0.65493476    -0.02700
C1838       C  0.17544833  0.58942452  0.64834290     0.07000
C1839       C  0.16980751  0.56539757  0.66061450    -0.02800
C1840       C  0.16503324  0.56795178  0.67941098    -0.02800
C1841       C  0.16531359  0.59437874  0.68595602     0.07100
C1842       C  0.17044074  0.61817401  0.67363604    -0.03000
Br1843     Br  0.16727159  0.65266440  0.68221496    -0.01500
Br1844     Br  0.18444726  0.64901336  0.63817796    -0.01600
Br1845     Br  0.15877663  0.53545896  0.69619586    -0.01600
Br1846     Br  0.16796260  0.52858057  0.65143739    -0.01500
C1847       C  0.02464959  0.91471427  0.58994543    -0.02700
C1848       C  0.00453779  0.91257242  0.57556476     0.07000
C1849       C  0.01766112  0.92907487  0.55918611    -0.02800
C1850       C  0.04828653  0.95380799  0.55938224    -0.02800
C1851       C  0.06635076  0.96038172  0.57565760     0.07100
C1852       C  0.05559947  0.93809592  0.58976769    -0.03000
Br1853     Br  0.08347797  0.93929630  0.60867656    -0.01500
Br1854     Br  0.01008161  0.88502973  0.60966901    -0.01600
Br1855     Br  0.06417537  0.97855476  0.53751648    -0.01600
Br1856     Br  0.49490674  0.91520251  0.53592391    -0.01500
C1857       C  0.29923423  0.72587398  0.59719960    -0.02700
C1858       C  0.30692318  0.74617024  0.58211142     0.07000
C1859       C  0.28438130  0.73919943  0.56833765    -0.02800
C1860       C  0.25728018  0.71030175  0.56791044    -0.02800
C1861       C  0.25257571  0.68747939  0.58104698     0.07100
C1862       C  0.27287653  0.69623526  0.59642234    -0.03000
Br1863     Br  0.26720881  0.66717255  0.61559600    -0.01500
Br1864     Br  0.32472287  0.73847047  0.61892152    -0.01600
Br1865     Br  0.22665488  0.70217524  0.54915072    -0.01600
Br1866     Br  0.29056199  0.76982505  0.55019394    -0.01500
C1867       C  0.05436315  0.89665176  0.34328149    -0.02700
C1868       C  0.08052300  0.91465765  0.35437438     0.07000
C1869       C  0.10741029  0.93818552  0.34618319    -0.02800
C1870       C  0.10811162  0.94355615  0.32712635    -0.02800
C1871       C  0.08235763  0.92505209  0.31606594     0.07100
C1872       C  0.05549685  0.90153501  0.32411511    -0.03000
Br1873     Br  0.02084968  0.87530889  0.30866946    -0.01500
Br1874     Br  0.01742348  0.86418959  0.35409940    -0.01600
Br1875     Br  0.14481912  0.97575897  0.31582080    -0.01600
Br1876     Br  0.14319109  0.96382672  0.36098764    -0.01500
C1877       C  0.98200228  0.91775475  0.44527869    -0.02700
C1878       C  0.99356599  0.91055589  0.42951067     0.07000
C1879       C  0.47202256  0.88945873  0.41606709    -0.02800
C1880       C  0.44149215  0.88323341  0.41626491    -0.02800
C1881       C  0.43194097  0.89648197  0.42984329     0.07100
C1882       C  0.45105929  0.90998428  0.44535975    -0.03000
Br1883     Br  0.43534767  0.91929098  0.46694671    -0.01500
Br1884     Br  0.00851038  0.93986537  0.46563517    -0.01600
Br1885     Br  0.41278925  0.85721947  0.39761498    -0.01600
Br1886     Br  0.48450985  0.87082992  0.39738768    -0.01500
C1887       C  0.19499645  0.92484619  0.40469756    -0.02700
C1888       C  0.18887277  0.93781286  0.42024115     0.07000
C1889       C  0.21214646  0.95198058  0.43380861    -0.02800
C1890       C  0.23796971  0.94788007  0.43371138    -0.02800
C1891       C  0.24146084  0.93052054  0.41971180     0.07100
C1892       C  0.22225845  0.92307878  0.40399373    -0.03000
Br1893     Br  0.23369837  0.91239678  0.38117509    -0.01500
Br1894     Br  0.16470692  0.90554570  0.38543683    -0.01600
Br1895     Br  0.26953790  0.96740826  0.45231168    -0.01600
Br1896     Br  0.20813408  0.97609420  0.45305030    -0.01500
C1897       C  0.14147386  0.51682538  0.48026674    -0.02700
C1898       C  0.12923892  0.98618800  0.48562501     0.07000
C1899       C  0.12972245  0.97677296  0.50388570    -0.02800
C1900       C  0.14322480  0.49891394  0.51660204    -0.02800
C1901       C  0.15124557  0.52954411  0.51292148     0.07100
C1902       C  0.15076149  0.53853729  0.49460713    -0.03000
Br1903     Br  0.16302077  0.58059965  0.48916730    -0.01500
Br1904     Br  0.15096890  0.53122022  0.45529930    -0.01600
Br1905     Br  0.14534782  0.98609462  0.54269351    -0.01600
Br1906     Br  0.11531235  0.93420958  0.50927135    -0.01500
C1907       C  0.05902019  0.66644947  0.34162551    -0.02700
C1908       C  0.08469393  0.67471023  0.35310242     0.07000
C1909       C  0.11183304  0.67762584  0.34571052    -0.02800
C1910       C  0.11342441  0.67262118  0.32680011    -0.02800
C1911       C  0.08780345  0.66463549  0.31520817     0.07100
C1912       C  0.06053850  0.66149635  0.32271499    -0.03000
Br1913     Br  0.02558227  0.65173651  0.30707577    -0.01500
Br1914     Br  0.02150807  0.66143381  0.35206425    -0.01600
Br1915     Br  0.15025300  0.67527979  0.31696525    -0.01600
Br1916     Br  0.14639222  0.68753738  0.36174305    -0.01500
C1917       C  0.10199846  0.55881110  0.40818343    -0.02700
C1918       C  0.09093685  0.53628801  0.42205423     0.07000
C1919       C  0.07722129  0.54041921  0.43790533    -0.02800
C1920       C  0.06936437  0.56360209  0.43816163    -0.02800
C1921       C  0.07610139  0.58322444  0.42283338     0.07100
C1922       C  0.09467686  0.58229069  0.40857304    -0.03000
Br1923     Br  0.11042720  0.61316073  0.38950472    -0.01500
Br1924     Br  0.12774930  0.55775680  0.38885911    -0.01600
Br1925     Br  0.04721279  0.56631967  0.45894487    -0.01600
Br1926     Br  0.06857539  0.01729455  0.45945436    -0.01500
C1927       C  0.06325812  0.77283764  0.41705375    -0.02700
C1928       C  0.08826956  0.77026057  0.42396652     0.07000
C1929       C  0.11511882  0.79706510  0.42996700    -0.02800
C1930       C  0.11631291  0.82538899  0.42995119    -0.02800
C1931       C  0.09043700  0.82752148  0.42475173     0.07100
C1932       C  0.06418282  0.80144403  0.41770804    -0.03000
Br1933     Br  0.02905208  0.80462441  0.41003709    -0.01500
Br1934     Br  0.02723118  0.73712097  0.40782901    -0.01600
Br1935     Br  0.15414703  0.86161158  0.43700584    -0.01600
Br1936     Br  0.15100816  0.79606825  0.43890650    -0.01500
C1937       C  0.18795208  0.78193828  0.40457878    -0.02700
C1938       C  0.18357808  0.75826676  0.41700239     0.07000
C1939       C  0.20964868  0.76078105  0.42612850    -0.02800
C1940       C  0.23794059  0.78868916  0.42573689    -0.02800
C1941       C  0.24058912  0.81434447  0.41619814     0.07100
C1942       C  0.21648841  0.80963035  0.40409433    -0.03000
Br1943     Br  0.22238583  0.84102998  0.38690407    -0.01500
Br1944     Br  0.15444273  0.77816765  0.38937215    -0.01600
Br1945     Br  0.27400379  0.79141572  0.43684631    -0.01600
Br1946     Br  0.20675502  0.72537092  0.43829281    -0.01500
C1947       C  0.41161639  0.52363400  0.41438201    -0.02700
C1948       C  0.41202586  0.50314780  0.42768466     0.07000
C1949       C  0.43184600  0.51550820  0.44311533    -0.02800
C1950       C  0.45331288  0.54728953  0.44393761    -0.02800
C1951       C  0.45664204  0.56630676  0.42877732     0.07100
C1952       C  0.43415166  0.55483260  0.41474367    -0.03000
Br1953     Br  0.43554189  0.58187969  0.39528730    -0.01500
Br1954     Br  0.38081543  0.50909470  0.39512832    -0.01600
Br1955     Br  0.97775820  0.56616634  0.46515301    -0.01600
Br1956     Br  0.43749191  0.98936221  0.46308421    -0.01500
C1957       C  0.40061917  0.56597939  0.66165737    -0.02700
C1958       C  0.42023994  0.58967650  0.64960168     0.07000
C1959       C  0.44723564  0.61491290  0.65660395    -0.02800
C1960       C  0.45355560  0.61719918  0.67562281    -0.02800
C1961       C  0.43248624  0.59494222  0.68779260     0.07100
C1962       C  0.40616866  0.56912088  0.68079668    -0.03000
Br1963     Br  0.37717105  0.53887841  0.69755421    -0.01500
Br1964     Br  0.36612564  0.52931394  0.65193047    -0.01600
Br1965     Br  0.49098266  0.65099546  0.68529834    -0.01600
Br1966     Br  0.47627512  0.64579494  0.64012606    -0.01500
C1967       C  0.40861443  0.72007870  0.59792447    -0.02700
C1968       C  0.42042479  0.74157269  0.58332140     0.07000
C1969       C  0.44222300  0.74077955  0.57148526    -0.02800
C1970       C  0.44741583  0.71573719  0.57192854    -0.02800
C1971       C  0.43112166  0.69129475  0.58431449     0.07100
C1972       C  0.41342769  0.69466174  0.59822441    -0.03000
Br1973     Br  0.39281315  0.66301332  0.61652017    -0.01500
Br1974     Br  0.38537163  0.72454340  0.61737427    -0.01600
Br1975     Br  0.47626791  0.71428134  0.55512315    -0.01600
Br1976     Br  0.46616831  0.77480560  0.55520089    -0.01500
C1977       C  0.38978397  0.97765111  0.58083288    -0.02700
C1978       C  0.42297596  0.50514471  0.57231334     0.07000
C1979       C  0.44310533  0.49846573  0.56265492    -0.02800
C1980       C  0.43152908  0.96512748  0.56284085    -0.02800
C1981       C  0.40764881  0.94211775  0.57326888     0.07100
C1982       C  0.38536716  0.94773112  0.58111002    -0.03000
Br1983     Br  0.35012949  0.91489777  0.59307292    -0.01500
Br1984     Br  0.36152579  0.98661084  0.59342989    -0.01600
Br1985     Br  0.46619410  0.96124289  0.55550083    -0.01600
Br1986     Br  0.47527106  0.52902072  0.54784031    -0.01500
C1987       C  0.29405540  0.61623067  0.57276013    -0.02700
C1988       C  0.26702959  0.58956022  0.57830301     0.07000
C1989       C  0.26936348  0.56457494  0.58536856    -0.02800
C1990       C  0.29829593  0.56571162  0.58566269    -0.02800
C1991       C  0.32479606  0.59174674  0.57874224     0.07100
C1992       C  0.32235324  0.61709921  0.57266038    -0.03000
Br1993     Br  0.35772707  0.65363873  0.56352977    -0.01500
Br1994     Br  0.29309213  0.65258249  0.56517386    -0.01600
Br1995     Br  0.30121795  0.53102468  0.59427431    -0.01600
Br1996     Br  0.23284159  0.52847753  0.59361223    -0.01500
C1997       C  0.06013670  0.60799600  0.59655588    -0.02700
C1998       C  0.04159317  0.60405594  0.58098879     0.07000
C1999       C  0.04955758  0.59621236  0.56403363    -0.02800
C2000       C  0.06950325  0.58402562  0.56383125    -0.02800
C2001       C  0.08488895  0.58375536  0.58019889     0.07100
C2002       C  0.08266848  0.59927909  0.59586617    -0.03000
Br2003     Br  0.11060508  0.60957961  0.61648722    -0.01500
Br2004     Br  0.05456939  0.62515036  0.61905163    -0.01600
Br2005     Br  0.07286403  0.56555446  0.54136472    -0.01600
Br2006     Br  0.53357854  0.60048057  0.54129774    -0.01500
C2007       C  0.01780002  0.65628804  0.52107662    -0.02700
C2008       C  0.48516050  0.63883485  0.51715171     0.07000
C2009       C  0.47425076  0.63614810  0.49892366    -0.02800
C2010       C  0.99683458  0.64658442  0.48454947    -0.02800
C2011       C  0.02846641  0.65819199  0.48809673     0.07100
C2012       C  0.03900564  0.66429088  0.50649499    -0.03000
Br2013     Br  0.08234356  0.68341233  0.51176973    -0.01500
Br2014     Br  0.03231499  0.67068145  0.54569875    -0.01600
Br2015     Br  0.48082989  0.65047446  0.46002249    -0.01600
Br2016     Br  0.43076161  0.61764784  0.49417887    -0.01500
O2017       O  0.91640061  0.06468725  0.62224384    -0.81700
O2018       O  0.95923961  0.09942181  0.54222214    -0.66400
O2019       O  0.94847529  0.10187246  0.59364364    -1.13000
C2020       C  0.85240965  0.09230518  0.57526848     1.05200
O2021       O  0.94244209  0.13150800  0.53601692    -0.79600
O2022       O  0.91535619  0.14919579  0.56110760    -0.67200
Ni2023     Ni  0.95304212  0.07403049  0.60942015     1.34900
C2024       C  0.92431345  0.15870760  0.57735008     0.83900
O2025       O  0.49467123  0.10625736  0.56969407    -0.80200
O2026       O  0.49204058  0.08262616  0.59645641    -0.90400
C2027       C  0.96022174  0.12089918  0.53264391     0.83500
O2028       O  0.92894538  0.03805956  0.59541635    -0.68600
O2029       O  0.86227605  0.09509639  0.55874481    -0.87900
C2030       C  0.92693623  0.03348821  0.57822403     0.84300
C2031       C  0.50601064  0.09638591  0.58173094     1.05900
H2032       H  0.89891179  0.07005788  0.56423296     0.37700
O2033       O  0.91251851  0.09160082  0.56652988    -1.10600
O2034       O  0.92630834  0.14205632  0.59004254    -0.67200
Ni2035     Ni  0.90850911  0.09788061  0.59215080     1.26300
O2036       O  0.93788120  0.05527875  0.56658710    -0.67500
O2037       O  0.86797610  0.09331290  0.58959786    -0.79800
C2038       C  0.91268597  0.08555014  0.62915101     0.83700
O2039       O  0.90765773  0.10291447  0.61857453    -0.66900
Ni2040     Ni  0.90264273  0.11216652  0.54816770     1.27400
Ni2041     Ni  0.95362530  0.09905392  0.56804341     1.26100
H2042       H  0.96314965  0.12237890  0.59758980     0.38200
O2043       O  0.56506263  0.14522598  0.37710862    -0.81700
O2044       O  0.54730766  0.14223414  0.46259741    -0.66400
O2045       O  0.54568156  0.15624529  0.41106011    -1.13000
C2046       C  0.64970023  0.23438731  0.42287335     1.05200
O2047       O  0.56707356  0.19147144  0.46863211    -0.79600
O2048       O  0.59128862  0.23571464  0.44274294    -0.67200
Ni2049     Ni  0.53220509  0.12284516  0.39412309     1.34900
C2050       C  0.58420998  0.24002213  0.42664875     0.83900
O2051       O  0.50429989  0.11421324  0.43745521    -0.80200
O2052       O  0.49740605  0.09613546  0.40879761    -0.90400
C2053       C  0.54881712  0.16345120  0.47259846     0.83500
O2054       O  0.55532443  0.10585770  0.40440479    -0.68600
O2055       O  0.64241610  0.23045835  0.43999829    -0.87900
C2056       C  0.56444779  0.10464055  0.42056170     0.84300
C2057       C  0.48849131  0.09437807  0.42532507     1.05900
H2058       H  0.60077200  0.16956095  0.43624704     0.37700
O2059       O  0.58795594  0.17881227  0.43531662    -1.10600
O2060       O  0.57829127  0.22109851  0.41342537    -0.67200
Ni2061     Ni  0.58802794  0.18838325  0.40988213     1.26300
O2062       O  0.56038875  0.11804348  0.43414087    -0.67500
O2063       O  0.63089840  0.21942750  0.40982979    -0.79800
C2064       C  0.57793959  0.17303914  0.37217315     0.83700
O2065       O  0.58599279  0.19460948  0.38378529    -0.66900
Ni2066     Ni  0.60406473  0.20954946  0.45356535     1.27400
Ni2067     Ni  0.54610329  0.14712468  0.43670662     1.26100
H2068       H  0.53260680  0.16509133  0.40941966     0.38200
O2069       O  0.56079554  0.41981214  0.37881417    -0.81700
O2070       O  0.59277136  0.46159634  0.45902472    -0.66400
O2071       O  0.59753910  0.45291256  0.40743601    -1.13000
C2072       C  0.59139833  0.35847469  0.42504760     1.05200
O2073       O  0.62726346  0.44742475  0.46468294    -0.79600
O2074       O  0.64640814  0.42064641  0.43977969    -0.67200
Ni2075     Ni  0.57059130  0.45732175  0.39077586     1.34900
C2076       C  0.65667872  0.43100026  0.42387140     0.83900
O2077       O  0.59511589  0.99321551  0.43302824    -0.80200
O2078       O  0.57753322  0.99245989  0.40438153    -0.90400
C2079       C  0.61528528  0.46394838  0.46840287     0.83500
O2080       O  0.53376019  0.43535258  0.40437628    -0.68600
O2081       O  0.59300560  0.36760841  0.44169230    -0.87900
C2082       C  0.52742928  0.42893324  0.42123986     0.84300
C2083       C  0.58777868  0.00536140  0.41992546     1.05900
H2084       H  0.56690669  0.40213212  0.43601760     0.37700
O2085       O  0.58839673  0.41686569  0.43408340    -1.10600
O2086       O  0.64020432  0.43351396  0.41118312    -0.67200
Ni2087     Ni  0.59566889  0.41399414  0.40859081     1.26300
O2088       O  0.54823812  0.43725052  0.43357415    -0.67500
O2089       O  0.59305542  0.37445119  0.41084533    -0.79800
C2090       C  0.58152076  0.41586170  0.37177435     0.83700
O2091       O  0.60080917  0.41354248  0.38222883    -0.66900
Ni2092     Ni  0.60910338  0.40762857  0.45252737     1.27400
Ni2093     Ni  0.59285145  0.45670216  0.43298568     1.26100
H2094       H  0.61814951  0.46829235  0.40413969     0.38200
O2095       O  0.64218716  0.07591090  0.62198585    -0.81700
O2096       O  0.63655726  0.04834682  0.53943656    -0.66400
O2097       O  0.65332548  0.05217795  0.59068430    -1.13000
C2098       C  0.72949777  0.15585711  0.57599092     1.05200
O2099       O  0.68589511  0.06901485  0.53265999    -0.79600
O2100       O  0.73127279  0.09541833  0.55795693    -0.67200
Ni2101     Ni  0.62065128  0.03909753  0.60805082     1.34900
C2102       C  0.73563260  0.08911600  0.57424239     0.83900
O2103       O  0.61028585  0.00767636  0.56606485    -0.80200
O2104       O  0.59548383  0.00110259  0.59546826    -0.90400
C2105       C  0.65769476  0.04992353  0.52930823     0.83500
O2106       O  0.59961057  0.05730001  0.59674481    -0.68600
O2107       O  0.72581148  0.14647269  0.55923170    -0.87900
C2108       C  0.59949391  0.06704194  0.58067840     0.84300
C2109       C  0.59262642  0.99134353  0.57900370     1.05900
H2110       H  0.66451227  0.10439759  0.56369587     0.37700
O2111       O  0.67418233  0.09205047  0.56517886    -1.10600
O2112       O  0.71761948  0.08529928  0.58762630    -0.67200
Ni2113     Ni  0.68468710  0.09485213  0.59059028     1.26300
O2114       O  0.61388273  0.06397085  0.56733576    -0.67500
O2115       O  0.71490972  0.13806994  0.58946077    -0.79800
C2116       C  0.66950264  0.08762903  0.62774695     0.83700
O2117       O  0.69165799  0.09525079  0.61668108    -0.66900
Ni2118     Ni  0.70450365  0.10709008  0.54670546     1.27400
Ni2119     Ni  0.64291906  0.04981204  0.56522749     1.26100
H2120       H  0.66296136  0.03985112  0.59271579     0.38200
O2121       O  0.85757325  0.43902740  0.37984509    -0.81700
O2122       O  0.85628711  0.40973650  0.46212344    -0.66400
O2123       O  0.84600800  0.40125760  0.41013248    -1.13000
C2124       C  0.76346054  0.41946884  0.42304722     1.05200
O2125       O  0.80754230  0.37525287  0.46650331    -0.79600
O2126       O  0.76414897  0.35474844  0.43883233    -0.67200
Ni2127     Ni  0.87998891  0.42479807  0.39421340     1.34900
C2128       C  0.76347316  0.34689174  0.42215076     0.83900
O2129       O  0.88746420  0.39997684  0.43621466    -0.80200
O2130       O  0.90524731  0.41259877  0.40740496    -0.90400
C2131       C  0.83575964  0.38797050  0.47153195     0.83500
O2132       O  0.89793635  0.46282067  0.40682437    -0.68600
O2133       O  0.76417958  0.40941094  0.43925535    -0.87900
C2134       C  0.89609575  0.47085806  0.42303629     0.84300
C2135       C  0.90648985  0.40343022  0.42362191     1.05900
H2136       H  0.82665102  0.43548590  0.43761187     0.37700
O2137       O  0.81924788  0.41409529  0.43513492    -1.10600
O2138       O  0.78176157  0.36513002  0.40991970    -0.67200
Ni2139     Ni  0.81211264  0.40888591  0.40917343     1.26300
O2140       O  0.88043642  0.45154741  0.43555601    -0.67500
O2141       O  0.77971258  0.41900534  0.40966205    -0.79800
C2142       C  0.83179657  0.42146341  0.37255204     0.83700
O2143       O  0.80863075  0.40494172  0.38262112    -0.66900
Ni2144     Ni  0.78665059  0.39258727  0.45196849     1.27400
Ni2145     Ni  0.85318961  0.40716378  0.43604770     1.26100
H2146       H  0.83852492  0.37989582  0.40749477     0.38200
O2147       O  0.94047719  0.35849250  0.61975205    -0.81700
O2148       O  0.91000225  0.36216916  0.53854505    -0.66400
O2149       O  0.90272001  0.35293124  0.59061563    -1.13000
C2150       C  0.90995375  0.26411972  0.57669695     1.05200
O2151       O  0.87184345  0.31541693  0.53505013    -0.79600
O2152       O  0.85026650  0.27026154  0.56122049    -0.67200
Ni2153     Ni  0.93081100  0.38533963  0.60628842     1.34900
C2154       C  0.84116438  0.27109469  0.57735930     0.83900
O2155       O  0.90691459  0.39704923  0.56508286    -0.80200
O2156       O  0.92337566  0.41482812  0.59375264    -0.90400
C2157       C  0.88627935  0.34337973  0.52971296     0.83500
O2158       O  0.96769413  0.39784756  0.59292860    -0.68600
O2159       O  0.90300342  0.26740834  0.56005983    -0.87900
C2160       C  0.97374052  0.39538810  0.57632439     0.84300
C2161       C  0.91453685  0.41727194  0.57762152     1.05900
H2162       H  0.93159411  0.32826185  0.56333189     0.37700
O2163       O  0.91054841  0.32296805  0.56546631    -1.10600
O2164       O  0.85924117  0.28955203  0.58974383    -0.67200
Ni2165     Ni  0.90432105  0.31553140  0.59121643     1.26300
O2166       O  0.95285768  0.38223154  0.56420176    -0.67500
O2167       O  0.90891056  0.27966682  0.59034397    -0.79800
C2168       C  0.92022545  0.33450881  0.62759317     0.83700
O2169       O  0.90044208  0.31235711  0.61782227    -0.66900
Ni2170     Ni  0.88790735  0.29204195  0.54813829     1.27400
Ni2171     Ni  0.90829954  0.35954872  0.56470066     1.26100
H2172       H  0.88215774  0.34844969  0.59362347     0.38200
O2173       O  0.52316217  0.27075979  0.04617662    -0.81700
O2174       O  0.52486682  0.23982898  0.12706014    -0.66400
O2175       O  0.51370065  0.23271682  0.07519143    -1.13000
C2176       C  0.92975995  0.24498067  0.08799882     1.05200
O2177       O  0.97588457  0.20372147  0.13155930    -0.79600
O2178       O  0.93297669  0.18361363  0.10454873    -0.67200
Ni2179     Ni  0.54689996  0.25641417  0.05896683     1.34900
C2180       C  0.93336086  0.17384478  0.08854651     0.83900
O2181       O  0.55694616  0.23392976  0.10030567    -0.80200
O2182       O  0.57322216  0.24396481  0.07104298    -0.90400
C2183       C  0.50434114  0.21736630  0.13609270     0.83500
O2184       O  0.56537499  0.29414722  0.07197306    -0.68600
O2185       O  0.93214613  0.23739349  0.10456594    -0.87900
C2186       C  0.56253302  0.30244946  0.08794127     0.84300
C2187       C  0.57578267  0.23712012  0.08767356     1.05900
H2188       H  0.49330214  0.26546457  0.10273002     0.37700
O2189       O  0.98732130  0.24169310  0.09991940    -1.10600
O2190       O  0.95060373  0.19137358  0.07569048    -0.67200
Ni2191     Ni  0.97933534  0.23547992  0.07403344     1.26300
O2192       O  0.54681817  0.28318812  0.10047296    -0.67500
O2193       O  0.94576020  0.24407118  0.07456780    -0.79800
C2194       C  0.49798364  0.25295859  0.03834800     0.83700
O2195       O  0.97630700  0.23232934  0.04734014    -0.66900
Ni2196     Ni  0.95522659  0.22137220  0.11723252     1.27400
Ni2197     Ni  0.52131993  0.23856765  0.10090880     1.26100
H2198       H  0.50692489  0.21148307  0.07257766     0.38200
O2199       O  0.60883835  0.20018116  0.28608584    -0.81700
O2200       O  0.57665362  0.19723652  0.20331978    -0.66400
O2201       O  0.57189697  0.18934359  0.25549850    -1.13000
C2202       C  0.59061742  0.10671170  0.24314797     1.05200
O2203       O  0.54491885  0.14764012  0.19950882    -0.79600
O2204       O  0.52878774  0.10534095  0.22680638    -0.67200
Ni2205     Ni  0.59640157  0.22343275  0.27105101     1.34900
C2206       C  0.51846688  0.10664930  0.24247246     0.83900
O2207       O  0.56828420  0.22862661  0.22945037    -0.80200
O2208       O  0.58575552  0.24949135  0.25726696    -0.90400
C2209       C  0.55465277  0.17541160  0.19469590     0.83500
O2210       O  0.63379550  0.23803962  0.25817772    -0.68600
O2211       O  0.58478865  0.10970742  0.22626698    -0.87900
C2212       C  0.64072734  0.23716167  0.24154936     0.84300
C2213       C  0.57431258  0.24915607  0.24145910     1.05900
H2214       H  0.60663559  0.17063869  0.22870975     0.37700
O2215       O  0.58492340  0.16243972  0.23067136    -1.10600
O2216       O  0.53478025  0.12651914  0.25463062    -0.67200
Ni2217     Ni  0.57876871  0.15514597  0.25656198     1.26300
O2218       O  0.62052355  0.22340201  0.22904770    -0.67500
O2219       O  0.58736090  0.12159842  0.25641514    -0.79800
C2220       C  0.58989995  0.17486214  0.29327816     0.83700
O2221       O  0.57359414  0.15174225  0.28305980    -0.66900
Ni2222     Ni  0.56569268  0.12984590  0.21361929     1.27400
Ni2223     Ni  0.57634333  0.19530513  0.22952276     1.26100
H2224       H  0.55068108  0.18236673  0.25846568     0.38200
O2225       O  0.81269116  0.41744238  0.28596690    -0.81700
O2226       O  0.81309684  0.38863022  0.20409048    -0.66400
O2227       O  0.82349543  0.39058530  0.25599561    -1.13000
C2228       C  0.90835193  0.48980744  0.24268532     1.05200
O2229       O  0.86194914  0.40265149  0.19962154    -0.79600
O2230       O  0.90466170  0.42457420  0.22699038    -0.67200
Ni2231     Ni  0.78996413  0.38042201  0.27212381     1.34900
C2232       C  0.90429489  0.41552135  0.24337560     0.83900
O2233       O  0.78092311  0.34917533  0.23031406    -0.80200
O2234       O  0.76437397  0.34263392  0.25943948    -0.90400
C2235       C  0.83361041  0.38676181  0.19509394     0.83500
O2236       O  0.77181139  0.40005079  0.25897427    -0.68600
O2237       O  0.90661965  0.47960672  0.22629550    -0.87900
C2238       C  0.77421252  0.41060510  0.24281314     0.84300
C2239       C  0.76215758  0.33324958  0.24290742     1.05900
H2240       H  0.84377611  0.44421336  0.22829338     0.37700
O2241       O  0.85084370  0.42986039  0.23075412    -1.10600
O2242       O  0.88653432  0.41589442  0.25576219    -0.67200
Ni2243     Ni  0.85797543  0.43148274  0.25668369     1.26300
O2244       O  0.79036793  0.40773064  0.23044418    -0.67500
O2245       O  0.89159096  0.47320305  0.25599292    -0.79800
C2246       C  0.83853960  0.42551542  0.29329510     0.83700
O2247       O  0.86144879  0.43102160  0.28324546    -0.66900
Ni2248     Ni  0.88315799  0.44074186  0.21375605     1.27400
Ni2249     Ni  0.81633444  0.38947058  0.23014167     1.26100
H2250       H  0.83066456  0.37634695  0.25863832     0.38200
O2251       O  0.72796449  0.25244595  0.04868073    -0.81700
O2252       O  0.76218175  0.29118502  0.12861829    -0.66400
O2253       O  0.76636354  0.28409241  0.07688440    -1.13000
C2254       C  0.76250220  0.18994966  0.09290989     1.05200
O2255       O  0.79920987  0.27998511  0.13290776    -0.79600
O2256       O  0.81947251  0.25573962  0.10647993    -0.67200
Ni2257     Ni  0.74007053  0.29035417  0.06060313     1.34900
C2258       C  0.82633087  0.26225982  0.08962634     0.83900
O2259       O  0.76540508  0.32687873  0.10090744    -0.80200
O2260       O  0.75059987  0.32875217  0.07190259    -0.90400
C2261       C  0.78584787  0.29502066  0.13727681     0.83500
O2262       O  0.70335741  0.26964834  0.07434178    -0.68600
O2263       O  0.76834049  0.20054061  0.10940996    -0.87900
C2264       C  0.69704329  0.26151363  0.09099214     0.84300
C2265       C  0.75990862  0.34045479  0.08784887     1.05900
H2266       H  0.73762068  0.23285020  0.10614202     0.37700
O2267       O  0.75861297  0.24778919  0.10325026    -1.10600
O2268       O  0.80755693  0.26229642  0.07768028    -0.67200
Ni2269     Ni  0.76315433  0.24437337  0.07742060     1.26300
O2270       O  0.71757623  0.26746703  0.10324600    -0.67500
O2271       O  0.75951313  0.20436785  0.07917043    -0.79800
C2272       C  0.74799599  0.24817612  0.04104977     0.83700
O2273       O  0.76615023  0.24343383  0.05101977    -0.66900
Ni2274     Ni  0.78271331  0.24043076  0.12044538     1.27400
Ni2275     Ni  0.76220168  0.28740898  0.10259202     1.26100
H2276       H  0.78718081  0.29912636  0.07363604     0.38200
O2277       O  0.73878158  0.47638245  0.04361781    -0.81700
O2278       O  0.71267581  0.47374143  0.12681112    -0.66400
O2279       O  0.71559766  0.48834252  0.07516952    -1.13000
C2280       C  0.82157946  0.06143978  0.08986033     1.05200
O2281       O  0.73489527  0.02494754  0.13243829    -0.79600
O2282       O  0.76559738  0.06935103  0.10667384    -0.67200
Ni2283     Ni  0.70277310  0.45501113  0.05825604     1.34900
C2284       C  0.75842460  0.07303002  0.09043997     0.83900
O2285       O  0.67128434  0.44558452  0.10036876    -0.80200
O2286       O  0.66548970  0.42959341  0.07125188    -0.90400
C2287       C  0.71495163  0.99736813  0.13642361     0.83500
O2288       O  0.72214956  0.43522059  0.06986177    -0.68600
O2289       O  0.81256648  0.05803103  0.10664347    -0.87900
C2290       C  0.73122427  0.43501493  0.08614560     0.84300
C2291       C  0.65548817  0.42691887  0.08759655     1.05900
H2292       H  0.76773503  0.99863285  0.10237812     0.37700
O2293       O  0.75640494  0.00932015  0.10061429    -1.10600
O2294       O  0.75158711  0.05316174  0.07764010    -0.67200
Ni2295     Ni  0.75981083  0.01913711  0.07513999     1.26300
O2296       O  0.72789069  0.44973148  0.09922326    -0.67500
O2297       O  0.80319253  0.04806891  0.07643299    -0.79800
C2298       C  0.75176576  0.00514350  0.03702371     0.83700
O2299       O  0.76154494  0.02612658  0.04911798    -0.66900
Ni2300     Ni  0.77310767  0.04022000  0.11876351     1.27400
Ni2301     Ni  0.71357401  0.47876764  0.10083374     1.26100
H2302       H  0.70439536  0.99768102  0.07137508     0.38200
O2303       O  0.59075237  0.40169072  0.28602270    -0.81700
O2304       O  0.62297692  0.43195692  0.20370166    -0.66400
O2305       O  0.61935277  0.43802863  0.25553970    -1.13000
C2306       C  0.51929920  0.42230190  0.24190507     1.05200
O2307       O  0.60575442  0.46422340  0.19864069    -0.79600
O2308       O  0.58040311  0.48263630  0.22501598    -0.67200
Ni2309     Ni  0.62687432  0.41260478  0.27174518     1.34900
C2310       C  0.59239563  0.49328266  0.24062227     0.83900
O2311       O  0.66151678  0.43839847  0.23063695    -0.80200
O2312       O  0.66383165  0.42167303  0.25897096    -0.90400
C2313       C  0.62375911  0.45394077  0.19467860     0.83500
O2314       O  0.60407776  0.37542340  0.25857079    -0.68600
O2315       O  0.52772705  0.42738266  0.22496056    -0.87900
C2316       C  0.59680414  0.36859152  0.24179932     0.84300
C2317       C  0.67531127  0.43203990  0.24314863     1.05900
H2318       H  0.56608270  0.40436525  0.22832779     0.37700
O2319       O  0.58007098  0.42597211  0.23007274    -1.10600
O2320       O  0.59571392  0.47711253  0.25310087    -0.67200
Ni2321     Ni  0.57907298  0.43309919  0.25572129     1.26300
O2322       O  0.60369951  0.38876477  0.22933118    -0.67500
O2323       O  0.53772960  0.42603817  0.25514940    -0.79800
C2324       C  0.58401462  0.42088180  0.29255371     0.83700
O2325       O  0.58027858  0.43892925  0.28192856    -0.66900
Ni2326     Ni  0.56708729  0.44507437  0.21246434     1.27400
Ni2327     Ni  0.62101484  0.43281418  0.22974426     1.26100
H2328       H  0.63414616  0.45901688  0.25851844     0.38200
O2329       O  0.92240826  0.32652310  0.71494898    -0.81700
O2330       O  0.89075594  0.32623316  0.79490023    -0.66400
O2331       O  0.89220725  0.33535857  0.74309960    -1.13000
C2332       C  0.98994597  0.42299470  0.75619101     1.05200
O2333       O  0.90257627  0.37450301  0.79896736    -0.79600
O2334       O  0.92368210  0.41769867  0.77179182    -0.67200
Ni2335     Ni  0.88476979  0.30190162  0.72757895     1.34900
C2336       C  0.91422655  0.41723636  0.75546795     0.83900
O2337       O  0.85147007  0.29269708  0.76851071    -0.80200
O2338       O  0.84635671  0.27557122  0.73948748    -0.90400
C2339       C  0.88812189  0.34632732  0.80380144     0.83500
O2340       O  0.90516606  0.28449929  0.74123730    -0.68600
O2341       O  0.97961769  0.42099254  0.77257368    -0.87900
C2342       C  0.91522190  0.28742380  0.75761260     0.84300
C2343       C  0.83597661  0.27393174  0.75571811     1.05900
H2344       H  0.94632480  0.35864709  0.77051691     0.37700
O2345       O  0.93115346  0.36472368  0.76812898    -1.10600
O2346       O  0.91453869  0.39924418  0.74305002    -0.67200
Ni2347     Ni  0.93207017  0.37166347  0.74219351     1.26300
O2348       O  0.91148267  0.30391133  0.76943723    -0.67500
O2349       O  0.97332191  0.40659441  0.74270038    -0.79800
C2350       C  0.92687300  0.35033173  0.70643875     0.83700
O2351       O  0.93083527  0.37366989  0.71553239    -0.66900
Ni2352     Ni  0.94072690  0.39683098  0.78499361     1.27400
Ni2353     Ni  0.89150198  0.32881552  0.76888466     1.26100
H2354       H  0.87681623  0.34095574  0.74020005     0.38200
O2355       O  0.77745042  0.25362356  0.95808781    -0.81700
O2356       O  0.80604806  0.27623662  0.87478781    -0.66400
O2357       O  0.79951527  0.28751763  0.92603609    -1.13000
C2358       C  0.69498996  0.25571119  0.91040456     1.05200
O2359       O  0.78107240  0.30052634  0.86700854    -0.79600
O2360       O  0.75387831  0.31781696  0.89183971    -0.67200
Ni2361     Ni  0.81437695  0.27037516  0.94411571     1.34900
C2362       C  0.76005114  0.32905229  0.90790046     0.83900
O2363       O  0.84584305  0.29284832  0.90222484    -0.80200
O2364       O  0.85279808  0.28456235  0.93166659    -0.90400
C2365       C  0.80219335  0.29409139  0.86410139     0.83500
O2366       O  0.79853860  0.23138407  0.93333468    -0.68600
O2367       O  0.70428893  0.26105165  0.89369063    -0.87900
C2368       C  0.79246221  0.22147651  0.91699533     0.84300
C2369       C  0.86231704  0.29150951  0.91515717     1.05900
H2370       H  0.74917780  0.24414659  0.89891947     0.37700
O2371       O  0.75996082  0.26603816  0.90018167    -1.10600
O2372       O  0.76397069  0.31555531  0.92176215    -0.67200
Ni2373     Ni  0.75629292  0.27393290  0.92551198     1.26300
O2374       O  0.79349505  0.23776871  0.90323017    -0.67500
O2375       O  0.71274022  0.25923408  0.92403607    -0.79800
C2376       C  0.76362051  0.26748906  0.96314977     0.83700
O2377       O  0.75500250  0.28070134  0.95151898    -0.66900
Ni2378     Ni  0.74345812  0.27975247  0.88123559     1.27400
Ni2379     Ni  0.80305520  0.28004899  0.90070876     1.26100
H2380       H  0.81067591  0.30943735  0.92785168     0.38200
O2381       O  0.69333811  0.11825134  0.71270655    -0.81700
O2382       O  0.71017097  0.09185856  0.79284935    -0.66400
O2383       O  0.69401815  0.08341247  0.74146749    -1.13000
C2384       C  0.60438054  0.08631223  0.75993340     1.05200
O2385       O  0.66303812  0.05422657  0.79858924    -0.79600
O2386       O  0.61498312  0.03214856  0.77423502    -0.67200
Ni2387     Ni  0.72324087  0.11103974  0.72435791     1.34900
C2388       C  0.61447989  0.02260559  0.75803425     0.83900
O2389       O  0.74186499  0.08921810  0.76439261    -0.80200
O2390       O  0.75543378  0.10631462  0.73529533    -0.90400
C2391       C  0.69161766  0.06930249  0.80257756     0.83500
O2392       O  0.73618322  0.14786378  0.73753915    -0.68600
O2393       O  0.61179287  0.08357078  0.77650407    -0.87900
C2394       C  0.73761724  0.15430579  0.75447343     0.84300
C2395       C  0.76108046  0.09919839  0.75116806     1.05900
H2396       H  0.67259752  0.11268796  0.77030174     0.37700
O2397       O  0.66711605  0.09162870  0.76830815    -1.10600
O2398       O  0.63271629  0.03954172  0.74544779    -0.67200
Ni2399     Ni  0.65606686  0.08377281  0.74301064     1.26300
O2400       O  0.72669295  0.13387056  0.76693098    -0.67500
O2401       O  0.61876200  0.08555050  0.74563706    -0.79800
C2402       C  0.66901908  0.09643007  0.70613237     0.83700
O2403       O  0.64868410  0.07736617  0.71695785    -0.66900
Ni2404     Ni  0.63834853  0.06975570  0.78690223     1.27400
Ni2405     Ni  0.70398671  0.08959960  0.76694773     1.26100
H2406       H  0.68970545  0.06295031  0.73827690     0.38200
O2407       O  0.79198669  0.02927501  0.95263246    -0.81700
O2408       O  0.76020335  0.05019890  0.87537356    -0.66400
O2409       O  0.75447906  0.03053858  0.92634160    -1.13000
C2410       C  0.76127978  0.44426046  0.90352691     1.05200
O2411       O  0.72668465  0.50365208  0.86720343    -0.79600
O2412       O  0.70500227  0.45426764  0.89067204    -0.67200
Ni2413     Ni  0.78180797  0.05867641  0.94405371     1.34900
C2414       C  0.69687271  0.45161573  0.90741953     0.83900
O2415       O  0.75809439  0.07935645  0.90608698    -0.80200
O2416       O  0.77305999  0.08962496  0.93587987    -0.90400
C2417       C  0.73866808  0.03156624  0.86490528     0.83500
O2418       O  0.81841032  0.07651612  0.92998117    -0.68600
O2419       O  0.75721329  0.45194228  0.88729851    -0.87900
C2420       C  0.82369609  0.07886280  0.91285373     0.84300
C2421       C  0.76646788  0.09677601  0.92030244     1.05900
H2422       H  0.78330397  0.01215416  0.89542976     0.37700
O2423       O  0.76461552  0.50682668  0.89700896    -1.10600
O2424       O  0.71432421  0.46895916  0.92018480    -0.67200
Ni2425     Ni  0.75842245  0.49430706  0.92214490     1.26300
O2426       O  0.80295162  0.06576536  0.90072327    -0.67500
O2427       O  0.76227521  0.45874811  0.91812718    -0.79800
C2428       C  0.77047274  0.00546608  0.95972041     0.83700
O2429       O  0.75302285  0.48491427  0.94808388    -0.66900
Ni2430     Ni  0.74272806  0.47875417  0.87801484     1.27400
Ni2431     Ni  0.75901024  0.04208261  0.90123869     1.26100
H2432       H  0.73393686  0.02533755  0.92991535     0.38200
O2433       O  0.99671936  0.26781488  0.95223063    -0.81700
O2434       O  0.99103429  0.23887275  0.87185318    -0.66400
O2435       O  0.00282437  0.23769650  0.92342051    -1.13000
C2436       C  0.59171130  0.33199704  0.90962674     1.05200
O2437       O  0.53670124  0.24403210  0.86814976    -0.79600
O2438       O  0.58237495  0.26498245  0.89401757    -0.67200
Ni2439     Ni  0.97094316  0.23025490  0.94014507     1.34900
C2440       C  0.58175683  0.25515861  0.91023696     0.83900
O2441       O  0.95739402  0.19966681  0.89834274    -0.80200
O2442       O  0.94364143  0.19249608  0.92829050    -0.90400
C2443       C  0.00898262  0.23326412  0.86263024     0.83500
O2444       O  0.95293220  0.25077575  0.92777004    -0.68600
O2445       O  0.58786589  0.32169001  0.89308448    -0.87900
C2446       C  0.95683507  0.26357884  0.91220405     0.84300
C2447       C  0.93984081  0.18393014  0.91151926     1.05900
H2448       H  0.52682849  0.29175182  0.89685817     0.37700
O2449       O  0.53167708  0.27566038  0.89893077    -1.10600
O2450       O  0.56472007  0.25634272  0.92286857    -0.67200
Ni2451     Ni  0.53976010  0.27614011  0.92464248     1.26300
O2452       O  0.97247963  0.26052416  0.89952833    -0.67500
O2453       O  0.57615952  0.31606408  0.92352721    -0.79800
C2454       C  0.52066677  0.27174924  0.96079695     0.83700
O2455       O  0.54335069  0.27477369  0.95132789    -0.66900
Ni2456     Ni  0.56172786  0.28272851  0.88124877     1.27400
Ni2457     Ni  0.99485468  0.23831735  0.89790116     1.26100
H2458       H  0.50738407  0.22131861  0.92630616     0.38200
O2459       O  0.92328642  0.12141274  0.71125228    -0.81700
O2460       O  0.93847032  0.13859040  0.79673858    -0.66400
O2461       O  0.95378460  0.13790063  0.74554698    -1.13000
C2462       C  0.91959759  0.03205039  0.75880495     1.05200
O2463       O  0.96627605  0.11695438  0.80351868    -0.79600
O2464       O  0.98365812  0.08926931  0.77787053    -0.67200
Ni2465     Ni  0.93681715  0.15442748  0.72823021     1.34900
C2466       C  0.99399877  0.09482805  0.76156497     0.83900
O2467       O  0.95720727  0.18245348  0.77169802    -0.80200
O2468       O  0.94731919  0.19004282  0.74275169    -0.90400
C2469       C  0.95739317  0.13611410  0.80717025     0.83500
O2470       O  0.89663509  0.13428391  0.73788870    -0.68600
O2471       O  0.92623431  0.04089562  0.77560988    -0.87900
C2472       C  0.88648187  0.12779069  0.75415754     0.84300
C2473       C  0.95357798  0.19861656  0.75941217     1.05900
H2474       H  0.90963459  0.08559371  0.77164093     0.37700
O2475       O  0.93170728  0.09670341  0.77033264    -1.10600
O2476       O  0.98041438  0.09998264  0.74815187    -0.67200
Ni2477     Ni  0.93909565  0.09426010  0.74496228     1.26300
O2478       O  0.90282790  0.12946115  0.76803484    -0.67500
O2479       O  0.92296357  0.05042167  0.74559555    -0.79800
C2480       C  0.93210595  0.10267971  0.70716220     0.83700
O2481       O  0.94474474  0.09338495  0.71882172    -0.66900
Ni2482     Ni  0.94560475  0.07958217  0.78874175     1.27400
Ni2483     Ni  0.94504612  0.13935976  0.77112684     1.26100
H2484       H  0.97607744  0.14898483  0.74401186     0.38200
C2485       C  0.00316703  0.17803863  0.82383758    -0.02700
C2486       C  0.97113025  0.15829852  0.82259378     0.07000
C2487       C  0.95175085  0.16358430  0.83392789    -0.02800
C2488       C  0.96379582  0.18965640  0.84527490    -0.02800
C2489       C  0.99615436  0.20887113  0.84770657     0.07100
C2490       C  0.51552246  0.20380453  0.83571614    -0.03000
Br2491     Br  0.55915937  0.23252748  0.83494914    -0.01500
Br2492     Br  0.53001614  0.17669936  0.80475915    -0.01600
Br2493     Br  0.93438853  0.19972730  0.85489298    -0.01600
Br2494     Br  0.90816745  0.13406139  0.83428770    -0.01500
C2495       C  0.64057404  0.41750306  0.90129663    -0.02700
C2496       C  0.66670558  0.42470757  0.91216833     0.07000
C2497       C  0.66562433  0.40255123  0.92471628    -0.02800
C2498       C  0.64008947  0.37267122  0.92485266    -0.02800
C2499       C  0.61553723  0.36457109  0.91243559     0.07100
C2500       C  0.61504701  0.38760382  0.90148366    -0.03000
Br2501     Br  0.57915862  0.37821889  0.88683522    -0.01500
Br2502     Br  0.64006968  0.44863098  0.88592552    -0.01600
Br2503     Br  0.64027727  0.34234069  0.94100094    -0.01600
Br2504     Br  0.70040543  0.41134859  0.94030486    -0.01500
C2505       C  0.90950549  0.12748811  0.91499650    -0.02700
C2506       C  0.91258501  0.15455704  0.90730412     0.07000
C2507       C  0.88754170  0.15424841  0.89831664    -0.02800
C2508       C  0.85953591  0.12686422  0.89688104    -0.02800
C2509       C  0.85508729  0.10098568  0.90703329     0.07100
C2510       C  0.88040943  0.10101983  0.91561745    -0.03000
Br2511     Br  0.87479694  0.06571975  0.92935705    -0.01500
Br2512     Br  0.94472724  0.12766251  0.92594618    -0.01600
Br2513     Br  0.82627607  0.12693813  0.88340720    -0.01600
Br2514     Br  0.88905923  0.19213611  0.89177667    -0.01500
C2515       C  0.52125574  0.06482922  0.76363730    -0.02700
C2516       C  0.52150066  0.09174024  0.75758005     0.07000
C2517       C  0.54871444  0.11582503  0.75000497    -0.02800
C2518       C  0.57607716  0.11410005  0.75017668    -0.02800
C2519       C  0.57592001  0.08792525  0.75742713     0.07100
C2520       C  0.54807747  0.06280137  0.76321799    -0.03000
Br2521     Br  0.54634762  0.02492860  0.77033146    -0.01500
Br2522     Br  0.98382170  0.02970955  0.77233968    -0.01600
Br2523     Br  0.61399070  0.14800707  0.74142778    -0.01600
Br2524     Br  0.54884369  0.15153530  0.74027839    -0.01500
C2525       C  0.84734856  0.14320536  0.75120481    -0.02700
C2526       C  0.85469360  0.12079684  0.75670752     0.07000
C2527       C  0.83128399  0.09156409  0.76224306    -0.02800
C2528       C  0.80022560  0.08408810  0.76085382    -0.02800
C2529       C  0.79294724  0.10626504  0.75449254     0.07100
C2530       C  0.81678468  0.13619717  0.75043061    -0.03000
Br2531     Br  0.80839084  0.16843100  0.74356817    -0.01500
Br2532     Br  0.87913454  0.18370025  0.74391355    -0.01600
Br2533     Br  0.76792465  0.04301961  0.76605484    -0.01600
Br2534     Br  0.84163670  0.06139388  0.77052900    -0.01500
C2535       C  0.71640044  0.07922163  0.83360200    -0.02700
C2536       C  0.70391031  0.05979951  0.81832519     0.07000
C2537       C  0.70556330  0.03270918  0.81748683    -0.02800
C2538       C  0.71846806  0.02442344  0.83224204    -0.02800
C2539       C  0.72934061  0.04289217  0.84824813     0.07100
C2540       C  0.72964420  0.07127072  0.84828678    -0.03000
Br2541     Br  0.74864094  0.10052926  0.86776642    -0.01500
Br2542     Br  0.71423356  0.11648220  0.83459272    -0.01600
Br2543     Br  0.72422234  0.98944625  0.82943640    -0.01600
Br2544     Br  0.69138454  0.00761068  0.79568533    -0.01500
C2545       C  0.91621475  0.30673101  0.92460851    -0.02700
C2546       C  0.89315326  0.29552767  0.91085935     0.07000
C2547       C  0.89814282  0.28316101  0.89453293    -0.02800
C2548       C  0.92331797  0.27807539  0.89348497    -0.02800
C2549       C  0.94131363  0.28197203  0.90928300     0.07100
C2550       C  0.93977919  0.29933833  0.92403809    -0.03000
Br2551     Br  0.97021441  0.31334329  0.94344010    -0.01500
Br2552     Br  0.91527378  0.33166695  0.94445403    -0.01600
Br2553     Br  0.93290908  0.26597954  0.87048229    -0.01600
Br2554     Br  0.86921857  0.26917249  0.87426849    -0.01500
C2555       C  0.63924641  0.22903018  0.90067167    -0.02700
C2556       C  0.66209485  0.24677276  0.91384352     0.07000
C2557       C  0.65370716  0.25907252  0.92882867    -0.02800
C2558       C  0.62386393  0.25531983  0.92967264    -0.02800
C2559       C  0.60411795  0.24420198  0.91421692     0.07100
C2560       C  0.61108722  0.22899609  0.90033134    -0.03000
Br2561     Br  0.58211852  0.20816500  0.88063178    -0.01500
Br2562     Br  0.64649343  0.20489104  0.88291683    -0.01600
Br2563     Br  0.61028618  0.26513150  0.95207394    -0.01600
Br2564     Br  0.68366938  0.28526522  0.94686761    -0.01500
C2565       C  0.74973385  0.13506612  0.91179767    -0.02700
C2566       C  0.77233058  0.12851347  0.91845828     0.07000
C2567       C  0.80174814  0.15289984  0.92337856    -0.02800
C2568       C  0.80887700  0.18324850  0.92073425    -0.02800
C2569       C  0.78620997  0.18988648  0.91451735     0.07100
C2570       C  0.75664350  0.16580778  0.90993163    -0.03000
Br2571     Br  0.72512217  0.17491403  0.90253411    -0.01500
Br2572     Br  0.70839008  0.10211127  0.90765039    -0.01600
Br2573     Br  0.84997638  0.21614421  0.92628449    -0.01600
Br2574     Br  0.83258548  0.14582510  0.93489508    -0.01500
C2575       C  0.78436785  0.38489876  0.91754460    -0.02700
C2576       C  0.75972811  0.35821059  0.90986851     0.07000
C2577       C  0.73497886  0.35982496  0.90159481    -0.02800
C2578       C  0.73652606  0.38807865  0.89884050    -0.02800
C2579       C  0.76173752  0.41515164  0.90568019     0.07100
C2580       C  0.78501829  0.41328525  0.91580830    -0.03000
Br2581     Br  0.81835815  0.44964172  0.92664543    -0.01500
Br2582     Br  0.81743122  0.38276673  0.92983625    -0.01600
Br2583     Br  0.70296858  0.38885073  0.88602488    -0.01600
Br2584     Br  0.69767096  0.32294219  0.89458428    -0.01500
C2585       C  0.54641454  0.44611654  0.76620122    -0.02700
C2586       C  0.52466542  0.44472993  0.75319874     0.07000
C2587       C  0.53528701  0.46551224  0.73822227    -0.02800
C2588       C  0.56579746  0.49053065  0.73816593    -0.02800
C2589       C  0.58620668  0.49447096  0.75290434     0.07100
C2590       C  0.57691149  0.47061622  0.76595755    -0.03000
Br2591     Br  0.60598644  0.47171037  0.78387814    -0.01500
Br2592     Br  0.53477786  0.41383587  0.78421243    -0.01600
Br2593     Br  0.58189992  0.01361865  0.71822867    -0.01600
Br2594     Br  0.00640526  0.46202803  0.71853325    -0.01500
C2595       C  0.79917838  0.22898652  0.77517308    -0.02700
C2596       C  0.80468329  0.24794614  0.75961447     0.07000
C2597       C  0.78140878  0.23875464  0.74611084    -0.02800
C2598       C  0.75584235  0.20903585  0.74660251    -0.02800
C2599       C  0.75509442  0.18737998  0.75937303     0.07100
C2600       C  0.77583487  0.19801554  0.77448306    -0.03000
Br2601     Br  0.77611571  0.17025900  0.79287101    -0.01500
Br2602     Br  0.82306949  0.24481545  0.79737840    -0.01600
Br2603     Br  0.72233347  0.19773786  0.72940681    -0.01600
Br2604     Br  0.78462279  0.26673162  0.72680766    -0.01500
C2605       C  0.91673201  0.46194929  0.73713396    -0.02700
C2606       C  0.90402208  0.44042814  0.75161789     0.08800
C2607       C  0.88754250  0.44599832  0.76533826    -0.02800
C2608       C  0.88900157  0.47475442  0.76666666    -0.02800
C2609       C  0.90689969  0.49869340  0.75413973     0.07100
C2610       C  0.91880625  0.49113374  0.73848932    -0.03000
Br2611     Br  0.93692616  0.01767040  0.71809360    -0.01500
Br2612     Br  0.93134756  0.45156300  0.71543767    -0.01600
Br2613     Br  0.86617405  0.48096349  0.78582829    -0.01600
Br2614     Br  0.86239666  0.41353612  0.78228215    -0.01500
C2615       C  0.93246301  0.22685102  0.77752282    -0.02700
C2616       C  0.95327663  0.22746196  0.76420208     0.07000
C2617       C  0.96680187  0.25264105  0.75196656    -0.02800
C2618       C  0.95643404  0.27409372  0.75118904    -0.02800
C2619       C  0.93213584  0.27065135  0.76250426     0.07100
C2620       C  0.92190243  0.24827816  0.77660040    -0.03000
Br2621     Br  0.89149271  0.24507653  0.79371876    -0.01500
Br2622     Br  0.91521156  0.19448883  0.79565558    -0.01600
Br2623     Br  0.97547096  0.30834891  0.73443916    -0.01600
Br2624     Br  0.99880968  0.25691896  0.73560843    -0.01500
C2625       C  0.87662787  0.34125604  0.83757943    -0.02700
C2626       C  0.86607806  0.33605612  0.81926446     0.07000
C2627       C  0.83415324  0.32000389  0.81571166    -0.02800
C2628       C  0.81314399  0.30596126  0.83025590    -0.02800
C2629       C  0.82387902  0.30941817  0.84859544     0.07100
C2630       C  0.85546674  0.32937740  0.85216269    -0.03000
Br2631     Br  0.86939067  0.34485521  0.87657564    -0.01500
Br2632     Br  0.92009853  0.36468182  0.84268554    -0.01600
Br2633     Br  0.76971617  0.28256082  0.82498460    -0.01600
Br2634     Br  0.81909812  0.31915830  0.79110424    -0.01500
C2635       C  0.73776577  0.01095240  0.00525551    -0.02700
C2636       C  0.76005123  0.01204580  0.01760143     0.07000
C2637       C  0.78566692  0.01087554  0.01088948    -0.02800
C2638       C  0.78846450  0.00749729  0.99192131    -0.02800
C2639       C  0.76560354  0.00523512  0.97963740     0.07100
C2640       C  0.74067987  0.00790331  0.98626325    -0.03000
Br2641     Br  0.71111048  0.00858593  0.96939112    -0.01500
Br2642     Br  0.70261265  0.01247028  0.01461074    -0.01600
Br2643     Br  0.82300229  0.00476517  0.98274429    -0.01600
Br2644     Br  0.81619378  0.01255346  0.02778374    -0.01500
C2645       C  0.70077297  0.48946497  0.17023837    -0.02700
C2646       C  0.69189964  0.48770831  0.15167348     0.07000
C2647       C  0.66101372  0.47860305  0.14739746    -0.02800
C2648       C  0.63853284  0.46759018  0.16135006    -0.02800
C2649       C  0.64726847  0.46855201  0.17992632     0.07100
C2650       C  0.67890900  0.48207544  0.18427792    -0.03000
Br2651     Br  0.69313249  0.49494775  0.20903663    -0.01500
Br2652     Br  0.75003439  0.01832217  0.17462692    -0.01600
Br2653     Br  0.59580802  0.45056367  0.15491994    -0.01600
Br2654     Br  0.64973129  0.48274432  0.12258137    -0.01500
C2655       C  0.72643947  0.23662170  0.00900157    -0.02700
C2656       C  0.75187353  0.25262259  0.02093994     0.07000
C2657       C  0.77975575  0.27640932  0.01390162    -0.02800
C2658       C  0.78252188  0.28319478  0.99496323    -0.02800
C2659       C  0.75745359  0.26654030  0.98296955     0.07100
C2660       C  0.72924955  0.24363827  0.99004822    -0.03000
Br2661     Br  0.69497895  0.22116537  0.97355653    -0.01500
Br2662     Br  0.68821245  0.20393309  0.01841991    -0.01600
Br2663     Br  0.82090712  0.31524611  0.98521963    -0.01600
Br2664     Br  0.81388763  0.30072002  0.03022601    -0.01500
C2665       C  0.73938475  0.39776262  0.10548568    -0.02700
C2666       C  0.74620382  0.41646160  0.08964258     0.07000
C2667       C  0.76620476  0.41578884  0.07624824    -0.02800
C2668       C  0.77424400  0.39280024  0.07693475    -0.02800
C2669       C  0.76290833  0.37084875  0.09113150     0.07100
C2670       C  0.74907816  0.37592332  0.10655812    -0.03000
Br2671     Br  0.74351760  0.35360037  0.12917936    -0.01500
Br2672     Br  0.71420162  0.39923515  0.12496216    -0.01600
Br2673     Br  0.80140809  0.39154323  0.05869433    -0.01600
Br2674     Br  0.78268472  0.44609238  0.05682519    -0.01500
C2675       C  0.78702911  0.12985385  0.09373042    -0.02700
C2676       C  0.76072860  0.10344069  0.08693484     0.07000
C2677       C  0.73665306  0.10675680  0.07918534    -0.02800
C2678       C  0.73724316  0.13522850  0.08049100    -0.02800
C2679       C  0.76188976  0.16038872  0.08961019     0.07100
C2680       C  0.78729191  0.15770925  0.09552653    -0.03000
Br2681     Br  0.82327381  0.19231798  0.10607911    -0.01500
Br2682     Br  0.82396402  0.12875301  0.09994281    -0.01600
Br2683     Br  0.70350242  0.13908964  0.07078629    -0.01600
Br2684     Br  0.70299021  0.07246979  0.06701694    -0.01500
C2685       C  0.93454006  0.39057938  0.23412236    -0.02700
C2686       C  0.92748091  0.40603930  0.24771522     0.07000
C2687       C  0.94753441  0.41849395  0.26294888    -0.02800
C2688       C  0.97739310  0.42227862  0.26222185    -0.02800
C2689       C  0.98653439  0.41194034  0.24663672     0.07100
C2690       C  0.96370223  0.39299690  0.23380684    -0.03000
Br2691     Br  0.97195732  0.36955122  0.21608069    -0.01500
Br2692     Br  0.90420943  0.36634285  0.21572071    -0.01600
Br2693     Br  0.50599940  0.44404998  0.28149258    -0.01600
Br2694     Br  0.93456891  0.43074354  0.28465516    -0.01500
C2695       C  0.71198537  0.42397361  0.22348126    -0.02700
C2696       C  0.70609570  0.43615242  0.23946559     0.07000
C2697       C  0.72883103  0.44900455  0.25328130    -0.02800
C2698       C  0.75411965  0.44437906  0.25283631    -0.02800
C2699       C  0.75647492  0.42635126  0.23885068     0.07100
C2700       C  0.73748852  0.41933320  0.22312131    -0.03000
Br2701     Br  0.74556941  0.40278522  0.20138212    -0.01500
Br2702     Br  0.68438845  0.41143128  0.20264037    -0.01600
Br2703     Br  0.78569789  0.46282145  0.27139645    -0.01600
Br2704     Br  0.72509829  0.47250492  0.27304030    -0.01500
C2705       C  0.81637855  0.35018912  0.14747384    -0.02700
C2706       C  0.79920791  0.31867748  0.15198690     0.07000
C2707       C  0.79536507  0.30988230  0.17063829    -0.02800
C2708       C  0.80909149  0.33216990  0.18455695    -0.02800
C2709       C  0.82379570  0.36366284  0.18013863     0.07100
C2710       C  0.82760035  0.37259386  0.16150415    -0.03000
Br2711     Br  0.84803675  0.41553759  0.15529227    -0.01500
Br2712     Br  0.82592154  0.36288514  0.12218752    -0.01600
Br2713     Br  0.81025955  0.31930245  0.20941902    -0.01600
Br2714     Br  0.77013157  0.26733536  0.17717155    -0.01500
C2715       C  0.61900105  0.07936690  0.23409102    -0.02700
C2716       C  0.60054445  0.08361309  0.24703407     0.07000
C2717       C  0.58860988  0.06290851  0.26202438    -0.02800
C2718       C  0.59020286  0.03562309  0.26202441    -0.02800
C2719       C  0.60329533  0.02862708  0.24694044     0.07100
C2720       C  0.61968933  0.05171753  0.23371571    -0.03000
Br2721     Br  0.64310592  0.04551061  0.21493085    -0.01500
Br2722     Br  0.64450617  0.11208251  0.21734460    -0.01600
Br2723     Br  0.57911174  0.50919780  0.28145048    -0.01600
Br2724     Br  0.56896467  0.07067716  0.28234593    -0.01500
C2725       C  0.58728097  0.32366324  0.22140218    -0.02700
C2726       C  0.58033770  0.33533337  0.23724343     0.07000
C2727       C  0.56094952  0.31439192  0.25072020    -0.02800
C2728       C  0.55566562  0.28431967  0.25090294    -0.02800
C2729       C  0.56874870  0.27475750  0.23723957     0.07100
C2730       C  0.58119916  0.29307854  0.22137318    -0.03000
Br2731     Br  0.59134755  0.27711603  0.20010577    -0.01500
Br2732     Br  0.60582568  0.34900172  0.20006438    -0.01600
Br2733     Br  0.53122998  0.25631847  0.27017003    -0.01600
Br2734     Br  0.54184090  0.32690416  0.26911854    -0.01500
C2735       C  0.95453082  0.03219818  0.26110395    -0.02700
C2736       C  0.93457977  0.02160152  0.24559894     0.07000
C2737       C  0.93863733  0.04293413  0.23150663    -0.02800
C2738       C  0.96488644  0.07230909  0.23142011    -0.02800
C2739       C  0.98674249  0.08143878  0.24580426     0.07100
C2740       C  0.97960846  0.06252439  0.26151296    -0.03000
Br2741     Br  0.00416745  0.07780089  0.28353433    -0.01500
Br2742     Br  0.95022532  0.00492150  0.28105979    -0.01600
Br2743     Br  0.47033295  0.10174708  0.21209455    -0.01600
Br2744     Br  0.90841654  0.03249163  0.21208927    -0.01500
C2745       C  0.68616325  0.27400232  0.22208573    -0.02700
C2746       C  0.67420496  0.25399038  0.23730619     0.07000
C2747       C  0.69492241  0.25436058  0.25073725    -0.02800
C2748       C  0.72519641  0.27896959  0.25152393    -0.02800
C2749       C  0.73535914  0.30273168  0.23839103     0.07100
C2750       C  0.71690806  0.29831525  0.22254813    -0.03000
Br2751     Br  0.73240760  0.32606227  0.20190265    -0.01500
Br2752     Br  0.66055849  0.26930315  0.20103359    -0.01600
Br2753     Br  0.75250207  0.28037523  0.27089711    -0.01600
Br2754     Br  0.68168949  0.22112537  0.26819932    -0.01500
C2755       C  0.50517889  0.23484361  0.00801369    -0.02700
C2756       C  0.49783100  0.25424178  0.01801770     0.07000
C2757       C  0.00961227  0.28345669  0.01028671    -0.02800
C2758       C  0.01851741  0.28974943  0.99169657    -0.02800
C2759       C  0.51857634  0.26855056  0.98111144     0.07100
C2760       C  0.51459350  0.24144363  0.98946466    -0.03000
Br2761     Br  0.52087587  0.21275242  0.97531780    -0.01500
Br2762     Br  0.50327416  0.19972760  0.02007695    -0.01600
Br2763     Br  0.03103644  0.32966380  0.98142430    -0.01600
Br2764     Br  0.01083745  0.31522682  0.02563692    -0.01500
C2765       C  0.65265938  0.25736821  0.10901941    -0.02700
C2766       C  0.66385699  0.24540428  0.09562235     0.07000
C2767       C  0.64281581  0.22315940  0.08326648    -0.02800
C2768       C  0.61264262  0.21806051  0.08169366    -0.02800
C2769       C  0.60334971  0.23492614  0.09270668     0.07100
C2770       C  0.62266926  0.25274204  0.10734007    -0.03000
Br2771     Br  0.60995110  0.27385056  0.12399125    -0.01500
Br2772     Br  0.67848605  0.28105735  0.12918056    -0.01600
Br2773     Br  0.58426344  0.18838583  0.06436487    -0.01600
Br2774     Br  0.65582548  0.20007467  0.06842072    -0.01500
C2775       C  0.90688038  0.27785998  0.09631357    -0.02700
C2776       C  0.90704053  0.25552808  0.08464532     0.07000
C2777       C  0.88386070  0.24181066  0.07100331    -0.02800
C2778       C  0.85862740  0.24706803  0.07084695    -0.02800
C2779       C  0.85689478  0.26684423  0.08398911     0.07100
C2780       C  0.88249767  0.28417972  0.09547826    -0.03000
Br2781     Br  0.88361746  0.31642398  0.11027630    -0.01500
Br2782     Br  0.93958917  0.29935300  0.11399511    -0.01600
Br2783     Br  0.82491373  0.22417953  0.05400867    -0.01600
Br2784     Br  0.88470779  0.21331785  0.05370758    -0.01500
C2785       C  0.58042316  0.35598824  0.07668306    -0.02700
C2786       C  0.57875551  0.33640980  0.09124256     0.07000
C2787       C  0.59526498  0.35013686  0.10760727    -0.02800
C2788       C  0.61852570  0.38146668  0.10759978    -0.02800
C2789       C  0.62467727  0.39928529  0.09131757     0.07100
C2790       C  0.60306787  0.38716006  0.07676013    -0.03000
Br2791     Br  0.60433485  0.41332971  0.05676042    -0.01500
Br2792     Br  0.55091119  0.34060304  0.05675887    -0.01600
Br2793     Br  0.64174858  0.39911625  0.12984271    -0.01600
Br2794     Br  0.58585251  0.32678171  0.13008169    -0.01500
C2795       C  0.86441893  0.10213319  0.06972986    -0.02700
C2796       C  0.85483475  0.08404534  0.08607433     0.07000
C2797       C  0.87682704  0.09119142  0.10023473    -0.02800
C2798       C  0.90437315  0.11953800  0.10019963    -0.02800
C2799       C  0.91123766  0.14044270  0.08541949     0.07100
C2800       C  0.89297545  0.12985114  0.06931309    -0.03000
Br2801     Br  0.90635556  0.15331119  0.04679960    -0.01500
Br2802     Br  0.83855349  0.09089007  0.04804203    -0.01600
Br2803     Br  0.93252689  0.12954675  0.12072922    -0.01600
Br2804     Br  0.86967410  0.06189193  0.11961808    -0.01500
C2805       C  0.51982385  0.19522409  0.18390203    -0.02700
C2806       C  0.53879702  0.18273868  0.17965432     0.07000
C2807       C  0.54291090  0.17803993  0.16102952    -0.02800
C2808       C  0.52928869  0.18690463  0.14691185    -0.02800
C2809       C  0.51407395  0.20341780  0.15113765     0.07100
C2810       C  0.50891154  0.20694328  0.16979567    -0.03000
Br2811     Br  0.98604847  0.22576660  0.17529097    -0.01500
Br2812     Br  0.50654521  0.19392010  0.20887165    -0.01600
Br2813     Br  0.52906166  0.17378266  0.12204078    -0.01600
Br2814     Br  0.56775817  0.16001754  0.15488697    -0.01500
C2815       C  0.89523318  0.33281013  0.65771120    -0.02700
C2816       C  0.92024866  0.33432821  0.64805582     0.07000
C2817       C  0.94781966  0.34240025  0.65771566    -0.02800
C2818       C  0.95078157  0.35009064  0.67654789    -0.02800
C2819       C  0.92598131  0.34901379  0.68609221     0.07100
C2820       C  0.89793774  0.33958424  0.67672382    -0.03000
Br2821     Br  0.86288320  0.33500895  0.69016769    -0.01500
Br2822     Br  0.85773264  0.32291795  0.64474687    -0.01600
Br2823     Br  0.98886448  0.36209704  0.68946002    -0.01600
Br2824     Br  0.98121748  0.34154422  0.64537004    -0.01500
C2825       C  0.82938791  0.44456800  0.34248863    -0.02700
C2826       C  0.83030552  0.42077021  0.35221443     0.07000
C2827       C  0.83696657  0.40043813  0.34268910    -0.02800
C2828       C  0.84180872  0.40334586  0.32349211    -0.02800
C2829       C  0.84035469  0.42682922  0.31368200     0.07100
C2830       C  0.83450948  0.44766362  0.32331828    -0.03000
Br2831     Br  0.83530328  0.48154642  0.31042619    -0.01500
Br2832     Br  0.82141123  0.47308503  0.35558373    -0.01600
Br2833     Br  0.84981524  0.37472958  0.31051279    -0.01600
Br2834     Br  0.84025766  0.36902577  0.35614053    -0.01500
C2835       C  0.87002898  0.39689352  0.49903253    -0.02700
C2836       C  0.84590044  0.37611148  0.48760790     0.07000
C2837       C  0.83490902  0.34448021  0.49010689    -0.02800
C2838       C  0.84885448  0.33385999  0.50300124    -0.02800
C2839       C  0.87366892  0.35474856  0.51434746     0.07100
C2840       C  0.88482516  0.38668949  0.51149224    -0.03000
Br2841     Br  0.92206844  0.41815433  0.52279781    -0.01500
Br2842     Br  0.88137727  0.43972210  0.49868075    -0.01600
Br2843     Br  0.83525510  0.29047267  0.50312492    -0.01600
Br2844     Br  0.80053383  0.31496674  0.47589269    -0.01500
C2845       C  0.67498266  0.11765267  0.65589876    -0.02700
C2846       C  0.67400888  0.09196465  0.64767892     0.07000
C2847       C  0.66950581  0.06689722  0.65860602    -0.02800
C2848       C  0.66649349  0.06769244  0.67779746    -0.02800
C2849       C  0.66656668  0.09304329  0.68600251     0.07100
C2850       C  0.67072611  0.11798063  0.67499349    -0.03000
Br2851     Br  0.66965617  0.15220276  0.68606110    -0.01500
Br2852     Br  0.68227643  0.15235219  0.64093251    -0.01600
Br2853     Br  0.66429812  0.03495114  0.69285596    -0.01600
Br2854     Br  0.66690273  0.03120739  0.64706810    -0.01500
C2855       C  0.52831391  0.41026132  0.58446487    -0.02700
C2856       C  0.50709698  0.40907766  0.57121000     0.07000
C2857       C  0.51865479  0.42770981  0.55539417    -0.02800
C2858       C  0.54863271  0.45339419  0.55579470    -0.02800
C2859       C  0.56760660  0.45860538  0.57142591     0.07100
C2860       C  0.55848060  0.43509284  0.58469127    -0.03000
Br2861     Br  0.58672725  0.43774159  0.60379348    -0.01500
Br2862     Br  0.51591691  0.37753886  0.60208037    -0.01600
Br2863     Br  0.56183476  0.48260651  0.53590523    -0.01600
Br2864     Br  0.99407274  0.41895816  0.53332084    -0.01500
C2865       C  0.79997379  0.22711139  0.59620721    -0.02700
C2866       C  0.80806370  0.24764040  0.58120572     0.07000
C2867       C  0.78567254  0.24082073  0.56730183    -0.02800
C2868       C  0.75844574  0.21196208  0.56668555    -0.02800
C2869       C  0.75336349  0.18890990  0.57973148     0.07100
C2870       C  0.77341726  0.19753878  0.59526744    -0.03000
Br2871     Br  0.76675230  0.16860992  0.61474426    -0.01500
Br2872     Br  0.82498827  0.23944010  0.61812483    -0.01600
Br2873     Br  0.72784884  0.20446494  0.54803315    -0.01600
Br2874     Br  0.79226262  0.27159054  0.54913270    -0.01500
C2875       C  0.55790823  0.39384748  0.34115946    -0.02700
C2876       C  0.58318350  0.41593996  0.35143924     0.07000
C2877       C  0.60681933  0.44161210  0.34232614    -0.02800
C2878       C  0.60577050  0.44448503  0.32303594    -0.02800
C2879       C  0.58121793  0.42166504  0.31274129     0.07100
C2880       C  0.55691720  0.39676906  0.32188433    -0.03000
Br2881     Br  0.52158367  0.36762947  0.30795992    -0.01500
Br2882     Br  0.52475872  0.35930435  0.35348822    -0.01600
Br2883     Br  0.63784844  0.47977818  0.31059140    -0.01600
Br2884     Br  0.63984233  0.47367490  0.35637502    -0.01500
C2885       C  0.48245232  0.41724826  0.44255007    -0.02700
C2886       C  0.49399243  0.41185251  0.42605160     0.07000
C2887       C  0.97287425  0.39246947  0.41259228    -0.02800
C2888       C  0.94227472  0.38599353  0.41312456    -0.02800
C2889       C  0.93245798  0.39785207  0.42741290     0.07100
C2890       C  0.95127986  0.40977444  0.44322089    -0.03000
Br2891     Br  0.93513935  0.41705337  0.46546961    -0.01500
Br2892     Br  0.50869398  0.43588978  0.46363127    -0.01600
Br2893     Br  0.91374965  0.36145765  0.39392983    -0.01600
Br2894     Br  0.98529960  0.37536064  0.39289045    -0.01500
C2895       C  0.69647982  0.42716088  0.40454147    -0.02700
C2896       C  0.68889121  0.43813917  0.42043573     0.07000
C2897       C  0.71078154  0.45052456  0.43491428    -0.02800
C2898       C  0.73714303  0.44738527  0.43476141    -0.02800
C2899       C  0.74208689  0.43193288  0.42016363     0.07100
C2900       C  0.72409784  0.42609051  0.40399880    -0.03000
Br2901     Br  0.73781482  0.41903612  0.38075128    -0.01500
Br2902     Br  0.66759092  0.40931121  0.38445051    -0.01600
Br2903     Br  0.76763350  0.46612690  0.45406367    -0.01600
Br2904     Br  0.70407187  0.47038028  0.45567359    -0.01500
C2905       C  0.64200502  0.01530546  0.48142980    -0.02700
C2906       C  0.62845159  0.48686989  0.48364286     0.07000
C2907       C  0.62974293  0.47736025  0.50177546    -0.02800
C2908       C  0.64006760  0.99664121  0.51807227    -0.02800
C2909       C  0.64939918  0.02756786  0.51414874     0.07100
C2910       C  0.65083412  0.03690652  0.49573897    -0.03000
Br2911     Br  0.66462675  0.07928234  0.49017781    -0.01500
Br2912     Br  0.65170802  0.02956683  0.45642786    -0.01600
Br2913     Br  0.65018128  0.48679651  0.53979600    -0.01600
Br2914     Br  0.61378686  0.43453903  0.50712447    -0.01500
C2915       C  0.56143540  0.17948378  0.34076782    -0.02700
C2916       C  0.58399070  0.17907068  0.35225021     0.07000
C2917       C  0.60875641  0.17766485  0.34427572    -0.02800
C2918       C  0.61024353  0.17525285  0.32500076    -0.02800
C2919       C  0.58671172  0.17380832  0.31357275     0.07100
C2920       C  0.56294075  0.17715067  0.32148317    -0.03000
Br2921     Br  0.53331611  0.18009180  0.30577109    -0.01500
Br2922     Br  0.52836028  0.18302174  0.35159775    -0.01600
Br2923     Br  0.64464245  0.17416330  0.31420044    -0.01600
Br2924     Br  0.64080869  0.17945658  0.35988934    -0.01500
C2925       C  0.59987491  0.05664550  0.40777945    -0.02700
C2926       C  0.59021721  0.03568245  0.42259868     0.07000
C2927       C  0.57985000  0.04272459  0.43895331    -0.02800
C2928       C  0.57490930  0.06796292  0.43936408    -0.02800
C2929       C  0.57934840  0.08557937  0.42322453     0.07100
C2930       C  0.59498366  0.08173895  0.40826655    -0.03000
Br2931     Br  0.61089579  0.11144662  0.38854477    -0.01500
Br2932     Br  0.61939535  0.05096344  0.38642936    -0.01600
Br2933     Br  0.56200487  0.07755042  0.46213257    -0.01600
Br2934     Br  0.56646987  0.51500649  0.45755468    -0.01500
C2935       C  0.56452179  0.27462799  0.41351576    -0.02700
C2936       C  0.58650094  0.27052049  0.42358669     0.07000
C2937       C  0.61196461  0.29664119  0.43157750    -0.02800
C2938       C  0.61396514  0.32534631  0.43085910    -0.02800
C2939       C  0.59043037  0.32876706  0.42260610     0.07100
C2940       C  0.56643298  0.30375833  0.41313191    -0.03000
Br2941     Br  0.53579970  0.30928618  0.40026429    -0.01500
Br2942     Br  0.53118099  0.24049867  0.40101267    -0.01600
Br2943     Br  0.65013964  0.36053864  0.44083350    -0.01600
Br2944     Br  0.64552822  0.29454991  0.44355417    -0.01500
C2945       C  0.68446684  0.28424140  0.40688339    -0.02700
C2946       C  0.68110525  0.25967260  0.41804856     0.07000
C2947       C  0.70758123  0.26173805  0.42637312    -0.02800
C2948       C  0.73616730  0.28920002  0.42513438    -0.02800
C2949       C  0.73814697  0.31553867  0.41693383     0.07100
C2950       C  0.71258112  0.31220364  0.40679243    -0.03000
Br2951     Br  0.71523652  0.34644627  0.39365354    -0.01500
Br2952     Br  0.64994477  0.28100878  0.39299490    -0.01600
Br2953     Br  0.77323916  0.29023377  0.43287114    -0.01600
Br2954     Br  0.70467814  0.22687608  0.43929486    -0.01500
C2955       C  0.91092488  0.02259460  0.41847530    -0.02700
C2956       C  0.91263751  0.00180782  0.43088252     0.07000
C2957       C  0.93431765  0.01358854  0.44540375    -0.02800
C2958       C  0.95674261  0.04503711  0.44577941    -0.02800
C2959       C  0.95828682  0.06440099  0.43121760     0.07100
C2960       C  0.93394146  0.05359636  0.41840756    -0.03000
Br2961     Br  0.93325835  0.08118043  0.40007256    -0.01500
Br2962     Br  0.87726763  0.00842688  0.40126949    -0.01600
Br2963     Br  0.48618213  0.06391831  0.46528410    -0.01600
Br2964     Br  0.93442786  0.49083685  0.46098099    -0.01500
C2965       C  0.89202448  0.07684090  0.66130884    -0.02700
C2966       C  0.91719584  0.09031202  0.64926125     0.07000
C2967       C  0.94736569  0.10404735  0.65652273    -0.02800
C2968       C  0.95236788  0.10592755  0.67569417    -0.02800
C2969       C  0.92725073  0.09286802  0.68775627     0.07100
C2970       C  0.89704079  0.07770876  0.68050284    -0.03000
Br2971     Br  0.86258637  0.05812827  0.69703580    -0.01500
Br2972     Br  0.85084222  0.05735720  0.65143512    -0.01600
Br2973     Br  0.99359158  0.12845020  0.68554841    -0.01600
Br2974     Br  0.98209349  0.12077187  0.64017778    -0.01500
C2975       C  0.90789691  0.21961973  0.59467546    -0.02700
C2976       C  0.91993168  0.24095728  0.58001024     0.07000
C2977       C  0.94059183  0.23896953  0.56770844    -0.02800
C2978       C  0.94540777  0.21365753  0.56841769    -0.02800
C2979       C  0.92954198  0.18991147  0.58135484     0.07100
C2980       C  0.91198288  0.19381621  0.59507455    -0.03000
Br2981     Br  0.88962692  0.16182110  0.61293579    -0.01500
Br2982     Br  0.88446965  0.22427817  0.61392155    -0.01600
Br2983     Br  0.97288349  0.21078168  0.55108973    -0.01600
Br2984     Br  0.96318745  0.27142010  0.55014948    -0.01500
C2985       C  0.89663413  0.48159699  0.58046149    -0.02700
C2986       C  0.91361493  0.00124856  0.57211115     0.07000
C2987       C  0.93105342  0.99343436  0.56063130    -0.02800
C2988       C  0.94073662  0.47012914  0.56470662    -0.02800
C2989       C  0.91483026  0.44609472  0.57326766     0.07100
C2990       C  0.89178604  0.45148266  0.58009299    -0.03000
Br2991     Br  0.85478084  0.41791423  0.59003418    -0.01500
Br2992     Br  0.86786121  0.48994904  0.59299121    -0.01600
Br2993     Br  0.97526754  0.46540350  0.55849691    -0.01600
Br2994     Br  0.95442141  0.01936429  0.54068652    -0.01500
C2995       C  0.79219351  0.11586574  0.57072162    -0.02700
C2996       C  0.76537405  0.08997468  0.57736238     0.07000
C2997       C  0.76772899  0.06547209  0.58521059    -0.02800
C2998       C  0.79649329  0.06638133  0.58548565    -0.02800
C2999       C  0.82258916  0.09140710  0.57748148     0.07100
C3000       C  0.82024688  0.11632136  0.57049830    -0.03000
Br3001     Br  0.85554934  0.15185570  0.56032256    -0.01500
Br3002     Br  0.79139832  0.15173582  0.56177562    -0.01600
Br3003     Br  0.79984428  0.03288240  0.59587197    -0.01600
Br3004     Br  0.73144212  0.03010133  0.59439029    -0.01500
C3005       C  0.55789400  0.10887433  0.59273991    -0.02700
C3006       C  0.53628326  0.09948235  0.57834177     0.07000
C3007       C  0.54163970  0.08777207  0.56203667    -0.02800
C3008       C  0.56253564  0.07692479  0.56233765    -0.02800
C3009       C  0.58165576  0.08275756  0.57787586     0.07100
C3010       C  0.58180272  0.10221924  0.59187357    -0.03000
Br3011     Br  0.61491934  0.12037482  0.60955182    -0.01500
Br3012     Br  0.55465299  0.13070090  0.61358947    -0.01600
Br3013     Br  0.56189955  0.05144797  0.54238994    -0.01600
Br3014     Br  0.02035719  0.08537910  0.54068777    -0.01500
C3015       C  0.51517273  0.14966893  0.52084322    -0.02700
C3016       C  0.98290253  0.13412447  0.51749747     0.07000
C3017       C  0.97288284  0.13279274  0.49919851    -0.02800
C3018       C  0.49550413  0.14502019  0.48423391    -0.02800
C3019       C  0.52680738  0.15538553  0.48800618     0.07100
C3020       C  0.53665664  0.15810520  0.50643878    -0.03000
Br3021     Br  0.57945906  0.17308942  0.51190999    -0.01500
Br3022     Br  0.52985056  0.16200939  0.54563430    -0.01600
Br3023     Br  0.98154532  0.14978863  0.46076955    -0.01600
Br3024     Br  0.92967084  0.11506887  0.49374410    -0.01500
O3025       O  0.92074964  0.56627459  0.62207780    -0.81700
O3026       O  0.96387722  0.60485253  0.54246256    -0.66400
O3027       O  0.95270288  0.60520410  0.59412949    -1.13000
C3028       C  0.85548281  0.59435466  0.57647528     1.05200
O3029       O  0.94585112  0.63632110  0.53692847    -0.79600
O3030       O  0.91871489  0.65289194  0.56314428    -0.67200
Ni3031     Ni  0.95850616  0.57815681  0.60990377     1.34900
C3032       C  0.92690592  0.66135607  0.57965993     0.83900
O3033       O  0.49950444  0.61031264  0.57138418    -0.80200
O3034       O  0.49636561  0.58726335  0.59847972    -0.90400
C3035       C  0.96373006  0.62600757  0.53298767     0.83500
O3036       O  0.93710158  0.54219093  0.59564688    -0.68600
O3037       O  0.86577874  0.59868539  0.55999697    -0.87900
C3038       C  0.93451035  0.53779530  0.57845263     0.84300
C3039       C  0.51081374  0.60078950  0.58383198     1.05900
H3040       H  0.90348813  0.57385185  0.56438034     0.37700
O3041       O  0.91673914  0.59531093  0.56708804    -1.10600
O3042       O  0.92874117  0.64404222  0.59190692    -0.67200
Ni3043     Ni  0.91211544  0.60003242  0.59287575     1.26300
O3044       O  0.94312011  0.55949569  0.56676433    -0.67500
O3045       O  0.87096924  0.59441547  0.59063262    -0.79800
C3046       C  0.91614238  0.58621535  0.62945880     0.83700
O3047       O  0.91083685  0.60374836  0.61928447    -0.66900
Ni3048     Ni  0.90624937  0.61646193  0.54938588     1.27400
Ni3049     Ni  0.95827964  0.60329720  0.56846359     1.26100
H3050       H  0.96690886  0.62580837  0.59813959     0.38200
O3051       O  0.55807962  0.64362764  0.37433114    -0.81700
O3052       O  0.54365807  0.64183960  0.46105159    -0.66400
O3053       O  0.54422254  0.65554279  0.40929562    -1.13000
C3054       C  0.65028486  0.73053302  0.42110366     1.05200
O3055       O  0.56808147  0.69144783  0.46729111    -0.79600
O3056       O  0.59435865  0.73510724  0.44105831    -0.67200
Ni3057     Ni  0.52986317  0.62095535  0.39318390     1.34900
C3058       C  0.58636439  0.73904181  0.42513239     0.83900
O3059       O  0.50050910  0.61601635  0.43549386    -0.80200
O3060       O  0.49845209  0.59274104  0.40924675    -0.90400
C3061       C  0.54770688  0.66398393  0.47120571     0.83500
O3062       O  0.55794276  0.60945744  0.40236655    -0.68600
O3063       O  0.64324912  0.72648976  0.43826938    -0.87900
C3064       C  0.56336473  0.60526685  0.41887154     0.84300
C3065       C  0.48687344  0.59360624  0.42449339     1.05900
H3066       H  0.59786794  0.66558671  0.43486767     0.37700
O3067       O  0.58641849  0.67627858  0.43384414    -1.10600
O3068       O  0.57942935  0.71982881  0.41195435    -0.67200
Ni3069     Ni  0.58750988  0.68607628  0.40838181     1.26300
O3070       O  0.55495262  0.61517076  0.43252758    -0.67500
O3071       O  0.63093668  0.71589659  0.40826113    -0.79800
C3072       C  0.57602418  0.67142876  0.37044114     0.83700
O3073       O  0.58693890  0.69273951  0.38236253    -0.66900
Ni3074     Ni  0.60480570  0.70729136  0.45195537     1.27400
Ni3075     Ni  0.54352130  0.64667850  0.43502539     1.26100
H3076       H  0.53200124  0.66520994  0.40715644     0.38200
O3077       O  0.55801522  0.91660608  0.38184170    -0.81700
O3078       O  0.59273970  0.95826425  0.46139474    -0.66400
O3079       O  0.59620016  0.95019150  0.40970927    -1.13000
C3080       C  0.59193120  0.85621638  0.42618817     1.05200
O3081       O  0.62807551  0.94484359  0.46647062    -0.79600
O3082       O  0.64810085  0.92039274  0.44057530    -0.67200
Ni3083     Ni  0.56872722  0.95447977  0.39342196     1.34900
C3084       C  0.65679058  0.92965100  0.42426175     0.83900
O3085       O  0.59648105  0.49592766  0.43046172    -0.80200
O3086       O  0.57872163  0.49522694  0.40187461    -0.90400
C3087       C  0.61554171  0.96072891  0.47050558     0.83500
O3088       O  0.53250561  0.93334368  0.40744245    -0.68600
O3089       O  0.59602647  0.86584276  0.44284798    -0.87900
C3090       C  0.52664013  0.92642614  0.42426740     0.84300
C3091       C  0.58889383  0.50792968  0.41750576     1.05900
H3092       H  0.56727985  0.89928163  0.43866534     0.37700
O3093       O  0.58854210  0.91421864  0.43623454    -1.10600
O3094       O  0.63890038  0.93055471  0.41193358    -0.67200
Ni3095     Ni  0.59425363  0.91119267  0.41052247     1.26300
O3096       O  0.54763943  0.93388555  0.43639701    -0.67500
O3097       O  0.59136646  0.87163422  0.41228644    -0.79800
C3098       C  0.57853999  0.91313081  0.37418379     0.83700
O3099       O  0.59804336  0.91046519  0.38415126    -0.66900
Ni3100     Ni  0.61098790  0.90556021  0.45394295     1.27400
Ni3101     Ni  0.59224695  0.95390077  0.43534599     1.26100
H3102       H  0.61671986  0.96557997  0.40624158     0.38200
O3103       O  0.64209597  0.56293345  0.62554245    -0.81700
O3104       O  0.63801371  0.54924837  0.53925075    -0.66400
O3105       O  0.65435246  0.54877778  0.59059983    -1.13000
C3106       C  0.72918559  0.65403008  0.57792800     1.05200
O3107       O  0.68729285  0.56955238  0.53269704    -0.79600
O3108       O  0.73244039  0.59452271  0.55880722    -0.67200
Ni3109     Ni  0.62039152  0.53259895  0.60745856     1.34900
C3110       C  0.73699541  0.58845243  0.57513567     0.83900
O3111       O  0.61337338  0.50583585  0.56418256    -0.80200
O3112       O  0.59359919  0.49897263  0.59219423    -0.90400
C3113       C  0.65905500  0.55133669  0.52881558     0.83500
O3114       O  0.60380858  0.55676130  0.59857331    -0.68600
O3115       O  0.72647674  0.64512038  0.56113253    -0.87900
C3116       C  0.60205303  0.56613464  0.58263098     0.84300
C3117       C  0.59332561  0.48961777  0.57602087     1.05900
H3118       H  0.66468015  0.60269935  0.56473501     0.37700
O3119       O  0.67471022  0.59065784  0.56604888    -1.10600
O3120       O  0.71879789  0.58433973  0.58847850    -0.67200
Ni3121     Ni  0.68461443  0.59211592  0.59151094     1.26300
O3122       O  0.61390814  0.56107023  0.56855185    -0.67500
O3123       O  0.71394836  0.63584363  0.59115429    -0.79800
C3124       C  0.66997565  0.58082920  0.62951468     0.83700
O3125       O  0.69133183  0.59188377  0.61760633    -0.66900
Ni3126     Ni  0.70562859  0.60663381  0.54781494     1.27400
Ni3127     Ni  0.64430851  0.54842164  0.56501909     1.26100
H3128       H  0.66467072  0.53697366  0.59209825     0.38200
O3129       O  0.85897109  0.93971492  0.38278927    -0.81700
O3130       O  0.85326904  0.90609015  0.46377358    -0.66400
O3131       O  0.84591675  0.89959004  0.41166361    -1.13000
C3132       C  0.76180861  0.91606228  0.42276546     1.05200
O3133       O  0.80444011  0.87146280  0.46753791    -0.79600
O3134       O  0.76293549  0.85092266  0.43843592    -0.67200
Ni3135     Ni  0.88076300  0.92420751  0.39660208     1.34900
C3136       C  0.76308028  0.84384328  0.42164144     0.83900
O3137       O  0.88615225  0.89771713  0.43829469    -0.80200
O3138       O  0.90504680  0.91057893  0.40964914    -0.90400
C3139       C  0.83250465  0.88434850  0.47304513     0.83500
O3140       O  0.89858512  0.96136793  0.41016119    -0.68600
O3141       O  0.76142810  0.90510443  0.43888785    -0.87900
C3142       C  0.89545520  0.96849057  0.42637145     0.84300
C3143       C  0.90566442  0.90130899  0.42596077     1.05900
H3144       H  0.82435440  0.93218028  0.43894254     0.37700
O3145       O  0.81730376  0.91094360  0.43617949    -1.10600
O3146       O  0.78161703  0.86296414  0.40980636    -0.67200
Ni3147     Ni  0.81184569  0.90689270  0.41001390     1.26300
O3148       O  0.87841611  0.94864666  0.43822894    -0.67500
O3149       O  0.77922724  0.91669238  0.40977335    -0.79800
C3150       C  0.83448216  0.92204829  0.37427565     0.83700
O3151       O  0.81044089  0.90437805  0.38338625    -0.66900
Ni3152     Ni  0.78371513  0.88842802  0.45220374     1.27400
Ni3153     Ni  0.85148855  0.90435089  0.43768591     1.26100
H3154       H  0.83881429  0.87840232  0.40871553     0.38200
O3155       O  0.93689005  0.85992040  0.62154314    -0.81700
O3156       O  0.90865419  0.86055854  0.53995236    -0.66400
O3157       O  0.89939957  0.85196386  0.59199868    -1.13000
C3158       C  0.91077474  0.76503589  0.58024759     1.05200
O3159       O  0.87188887  0.81306325  0.53620695    -0.79600
O3160       O  0.85007113  0.76886204  0.56312730    -0.67200
Ni3161     Ni  0.92509892  0.88492500  0.60796946     1.34900
C3162       C  0.84046137  0.76964940  0.57914366     0.83900
O3163       O  0.90392935  0.89545120  0.56589361    -0.80200
O3164       O  0.91518536  0.91228028  0.59519641    -0.90400
C3165       C  0.88546319  0.84107614  0.53088892     0.83500
O3166       O  0.96297138  0.90047703  0.59522439    -0.68600
O3167       O  0.90384223  0.76746554  0.56344064    -0.87900
C3168       C  0.97072262  0.89712334  0.57921693     0.84300
C3169       C  0.90830145  0.91471546  0.57857398     1.05900
H3170       H  0.93082465  0.82830625  0.56586090     0.37700
O3171       O  0.90955369  0.82247653  0.56765908    -1.10600
O3172       O  0.85794517  0.78841499  0.59157497    -0.67200
Ni3173     Ni  0.90268741  0.81557203  0.59345699     1.26300
O3174       O  0.95100064  0.88206531  0.56674131    -0.67500
O3175       O  0.90882813  0.78061813  0.59354980    -0.79800
C3176       C  0.91739531  0.83579389  0.62955509     0.83700
O3177       O  0.89811959  0.81299162  0.62002901    -0.66900
Ni3178     Ni  0.88822596  0.79088399  0.55047148     1.27400
Ni3179     Ni  0.90626357  0.85845810  0.56617601     1.26100
H3180       H  0.87837803  0.84657592  0.59440460     0.38200
O3181       O  0.52657272  0.77184955  0.04880438    -0.81700
O3182       O  0.52669787  0.74594800  0.12872331    -0.66400
O3183       O  0.51466490  0.73326984  0.07743335    -1.13000
C3184       C  0.92896682  0.74654559  0.09136273     1.05200
O3185       O  0.97895832  0.70747297  0.13399602    -0.79600
O3186       O  0.93459585  0.68512064  0.10700039    -0.67200
Ni3187     Ni  0.54826213  0.75512023  0.06124680     1.34900
C3188       C  0.93414901  0.67661556  0.09051602     0.83900
O3189       O  0.55833151  0.73672694  0.10306614    -0.80200
O3190       O  0.57184419  0.73977495  0.07344716    -0.90400
C3191       C  0.50724927  0.72348586  0.13807201     0.83500
O3192       O  0.57024084  0.79316524  0.07390234    -0.68600
O3193       O  0.93087632  0.73733685  0.10762329    -0.87900
C3194       C  0.56585002  0.80306316  0.08891798     0.84300
C3195       C  0.57531687  0.73568385  0.09047021     1.05900
H3196       H  0.49381202  0.76740700  0.10405224     0.37700
O3197       O  0.98695073  0.74506256  0.10278555    -1.10600
O3198       O  0.95120212  0.69514439  0.07790772    -0.67200
Ni3199     Ni  0.97962243  0.73955951  0.07690263     1.26300
O3200       O  0.54729786  0.78537890  0.10104029    -0.67500
O3201       O  0.94553672  0.74722162  0.07777570    -0.79800
C3202       C  0.50197379  0.75484958  0.04025119     0.83700
O3203       O  0.97723233  0.73714153  0.05006266    -0.66900
Ni3204     Ni  0.95561082  0.72281981  0.12002987     1.27400
Ni3205     Ni  0.52251540  0.74124407  0.10289973     1.26100
H3206       H  0.50740965  0.71174982  0.07553746     0.38200
O3207       O  0.61290536  0.68992104  0.28586148    -0.81700
O3208       O  0.57958685  0.70372424  0.20735102    -0.66400
O3209       O  0.57472444  0.68783645  0.25881297    -1.13000
C3210       C  0.58582529  0.60287317  0.24007636     1.05200
O3211       O  0.54545536  0.65506383  0.20122894    -0.79600
O3212       O  0.52577889  0.60794961  0.22605592    -0.67200
Ni3213     Ni  0.60164835  0.71794158  0.27596550     1.34900
C3214       C  0.51624930  0.60713299  0.24232175     0.83900
O3215       O  0.57861438  0.73538413  0.23682626    -0.80200
O3216       O  0.59234928  0.74805374  0.26654711    -0.90400
C3217       C  0.55753448  0.68370014  0.19765786     0.83500
O3218       O  0.63821683  0.73455762  0.26198958    -0.68600
O3219       O  0.57968988  0.60794926  0.22365263    -0.87900
C3220       C  0.64467647  0.73413384  0.24520157     0.84300
C3221       C  0.58522417  0.75338699  0.25060203     1.05900
H3222       H  0.60503979  0.66866548  0.22928291     0.37700
O3223       O  0.58372961  0.66211443  0.23156097    -1.10600
O3224       O  0.53348607  0.62503463  0.25506654    -0.67200
Ni3225     Ni  0.57798130  0.65146934  0.25693412     1.26300
O3226       O  0.62417640  0.72138517  0.23281430    -0.67500
O3227       O  0.58391963  0.61690848  0.25414687    -0.79800
C3228       C  0.59230269  0.66592189  0.29332531     0.83700
O3229       O  0.57344423  0.64428336  0.28307723    -0.66900
Ni3230     Ni  0.56312358  0.63239274  0.21318454     1.27400
Ni3231     Ni  0.57974302  0.69795310  0.23339636     1.26100
H3232       H  0.55393137  0.68209650  0.26214817     0.38200
O3233       O  0.81923527  0.91478139  0.28929153    -0.81700
O3234       O  0.81242204  0.88855056  0.20688172    -0.66400
O3235       O  0.82724933  0.88922307  0.25819180    -1.13000
C3236       C  0.91116019  0.98841463  0.24307595     1.05200
O3237       O  0.86032485  0.90017977  0.20150651    -0.79600
O3238       O  0.90663403  0.92404923  0.22680851    -0.67200
Ni3239     Ni  0.79490541  0.87850220  0.27538695     1.34900
C3240       C  0.90761635  0.91473954  0.24291515     0.83900
O3241       O  0.78261908  0.84859533  0.23309824    -0.80200
O3242       O  0.76782972  0.84134309  0.26255411    -0.90400
C3243       C  0.83174294  0.88532845  0.19746417     0.83500
O3244       O  0.77605962  0.89919108  0.26417601    -0.68600
O3245       O  0.90741258  0.97795536  0.22661996    -0.87900
C3246       C  0.77775319  0.91092001  0.24845561     0.84300
C3247       C  0.76466784  0.83236149  0.24588181     1.05900
H3248       H  0.84574487  0.94348606  0.23112533     0.37700
O3249       O  0.85264443  0.92884613  0.23293184    -1.10600
O3250       O  0.89026736  0.91421865  0.25586308    -0.67200
Ni3251     Ni  0.86215460  0.93014262  0.25842366     1.26300
O3252       O  0.79250893  0.90783631  0.23520380    -0.67500
O3253       O  0.89612278  0.97194623  0.25698209    -0.79800
C3254       C  0.84560582  0.92258205  0.29563849     0.83700
O3255       O  0.86796739  0.92933601  0.28479542    -0.66900
Ni3256     Ni  0.88298681  0.93890931  0.21475207     1.27400
Ni3257     Ni  0.81783931  0.88882272  0.23274740     1.26100
H3258       H  0.83447072  0.87482320  0.26000708     0.38200
O3259       O  0.72899198  0.75611987  0.04975268    -0.81700
O3260       O  0.76081853  0.79176707  0.13029106    -0.66400
O3261       O  0.76640555  0.78608716  0.07854031    -1.13000
C3262       C  0.75853170  0.68968451  0.09403023     1.05200
O3263       O  0.79574710  0.77790313  0.13519560    -0.79600
O3264       O  0.81529616  0.75314861  0.10914301    -0.67200
Ni3265     Ni  0.74110379  0.79358725  0.06211496     1.34900
C3266       C  0.82418167  0.76201983  0.09280636     0.83900
O3267       O  0.76533745  0.82837787  0.10279957    -0.80200
O3268       O  0.75193413  0.83177880  0.07371420    -0.90400
C3269       C  0.78364654  0.79417407  0.13931635     0.83500
O3270       O  0.70387267  0.77285683  0.07545119    -0.68600
O3271       O  0.76256981  0.69911374  0.11075965    -0.87900
C3272       C  0.69707276  0.76397019  0.09197204     0.84300
C3273       C  0.76085419  0.84279069  0.08981948     1.05900
H3274       H  0.73526316  0.73387624  0.10671926     0.37700
O3275       O  0.75661097  0.74848977  0.10448260    -1.10600
O3276       O  0.80690079  0.76373571  0.08038311    -0.67200
Ni3277     Ni  0.76255216  0.74606689  0.07871888     1.26300
O3278       O  0.71716952  0.76942836  0.10437170    -0.67500
O3279       O  0.75815842  0.70551747  0.08019181    -0.79800
C3280       C  0.74903706  0.75181634  0.04217737     0.83700
O3281       O  0.76678716  0.74636404  0.05217149    -0.66900
Ni3282     Ni  0.77807131  0.73874511  0.12226661     1.27400
Ni3283     Ni  0.76149580  0.78865509  0.10421451     1.26100
H3284       H  0.78741585  0.80098754  0.07559046     0.38200
O3285       O  0.73415181  0.97708168  0.04059498    -0.81700
O3286       O  0.71134055  0.97523432  0.12645598    -0.66400
O3287       O  0.71672002  0.98852776  0.07463465    -1.13000
C3288       C  0.82012978  0.56413210  0.08953055     1.05200
O3289       O  0.73356985  0.52326516  0.13285784    -0.79600
O3290       O  0.76173836  0.56856383  0.10728698    -0.67200
Ni3291     Ni  0.70570555  0.95356423  0.05934414     1.34900
C3292       C  0.75460738  0.57250683  0.09109036     0.83900
O3293       O  0.67086653  0.94969086  0.09934071    -0.80200
O3294       O  0.67427558  0.92464140  0.07528234    -0.90400
C3295       C  0.71449245  0.49529452  0.13664913     0.83500
O3296       O  0.73541076  0.94564907  0.07039250    -0.68600
O3297       O  0.81103030  0.56049225  0.10632695    -0.87900
C3298       C  0.73751507  0.94038417  0.08729761     0.84300
C3299       C  0.65978236  0.92633194  0.08902056     1.05900
H3300       H  0.76826381  0.50055766  0.10195573     0.37700
O3301       O  0.75588640  0.51021380  0.10049207    -1.10600
O3302       O  0.74918251  0.55351560  0.07788815    -0.67200
Ni3303     Ni  0.75841907  0.52004184  0.07499657     1.26300
O3304       O  0.72506879  0.94827915  0.09976011    -0.67500
O3305       O  0.80193047  0.55014326  0.07600849    -0.79800
C3306       C  0.75070902  0.50350386  0.03766026     0.83700
O3307       O  0.75852116  0.52593819  0.04862837    -0.66900
Ni3308     Ni  0.77171896  0.54070802  0.11883677     1.27400
Ni3309     Ni  0.71363811  0.98000099  0.10046451     1.26100
H3310       H  0.70304708  0.49762443  0.07293530     0.38200
O3311       O  0.59738596  0.90872565  0.29036821    -0.81700
O3312       O  0.63398869  0.93838065  0.20872155    -0.66400
O3313       O  0.62565848  0.94529934  0.26003077    -1.13000
C3314       C  0.52464184  0.92336827  0.24248978     1.05200
O3315       O  0.61460311  0.96845254  0.20210866    -0.79600
O3316       O  0.58687655  0.98638988  0.22712247    -0.67200
Ni3317     Ni  0.63479292  0.92215740  0.27716356     1.34900
C3318       C  0.59595454  0.99647382  0.24328454     0.83900
O3319       O  0.67208665  0.95002230  0.23674794    -0.80200
O3320       O  0.67315814  0.93304526  0.26515271    -0.90400
C3321       C  0.63296707  0.95847401  0.19867556     0.83500
O3322       O  0.61414107  0.88410206  0.26491446    -0.68600
O3323       O  0.53507039  0.93030597  0.22604608    -0.87900
C3324       C  0.60990677  0.87700625  0.24808419     0.84300
C3325       C  0.68565341  0.94394633  0.24956309     1.05900
H3326       H  0.57551280  0.90835298  0.23114111     0.37700
O3327       O  0.58802953  0.93011090  0.23322179    -1.10600
O3328       O  0.59775771  0.98004080  0.25614667    -0.67200
Ni3329     Ni  0.58397927  0.93660581  0.25860170     1.26300
O3330       O  0.61659455  0.89656809  0.23516804    -0.67500
O3331       O  0.54167629  0.92621878  0.25633960    -0.79800
C3332       C  0.58699687  0.92556016  0.29581289     0.83700
O3333       O  0.58194580  0.94197092  0.28458546    -0.66900
Ni3334     Ni  0.57534937  0.94872618  0.21492456     1.27400
Ni3335     Ni  0.63005450  0.94018061  0.23453254     1.26100
H3336       H  0.63883452  0.96666060  0.26301657     0.38200
O3337       O  0.92688521  0.82950767  0.71605815    -0.81700
O3338       O  0.89088573  0.82671795  0.79584163    -0.66400
O3339       O  0.89531054  0.83689154  0.74402412    -1.13000
C3340       C  0.99342385  0.92174394  0.75884126     1.05200
O3341       O  0.90482666  0.87558007  0.80008988    -0.79600
O3342       O  0.92904560  0.91949015  0.77367634    -0.67200
Ni3343     Ni  0.88881855  0.80422687  0.72814088     1.34900
C3344       C  0.91875369  0.91865520  0.75755449     0.83900
O3345       O  0.85302407  0.79421049  0.76848968    -0.80200
O3346       O  0.85028636  0.77719871  0.73959437    -0.90400
C3347       C  0.88911868  0.84742489  0.80470860     0.83500
O3348       O  0.90920206  0.78718496  0.74185789    -0.68600
O3349       O  0.98317033  0.91943870  0.77523749    -0.87900
C3350       C  0.91788946  0.78901253  0.75845099     0.84300
C3351       C  0.83870442  0.77547299  0.75546225     1.05900
H3352       H  0.94797578  0.85800639  0.77214864     0.37700
O3353       O  0.93334035  0.86477186  0.76975685    -1.10600
O3354       O  0.91794526  0.90013932  0.74518449    -0.67200
Ni3355     Ni  0.93527316  0.87266108  0.74395590     1.26300
O3356       O  0.91246737  0.80403024  0.77053237    -0.67500
O3357       O  0.97649597  0.90676477  0.74514245    -0.79800
C3358       C  0.93153211  0.85362624  0.70789113     0.83700
O3359       O  0.93509032  0.87637274  0.71740248    -0.66900
Ni3360     Ni  0.94367903  0.89661289  0.78694976     1.27400
Ni3361     Ni  0.89323751  0.82966883  0.76976856     1.26100
H3362       H  0.88023653  0.84278613  0.74083257     0.38200
O3363       O  0.78205132  0.75776585  0.96042296    -0.81700
O3364       O  0.80850012  0.77909445  0.87528910    -0.66400
O3365       O  0.80111737  0.78877618  0.92668041    -1.13000
C3366       C  0.69571733  0.75371526  0.91044872     1.05200
O3367       O  0.78183712  0.80174579  0.86771750    -0.79600
O3368       O  0.75167483  0.81618803  0.89212251    -0.67200
Ni3369     Ni  0.81568296  0.77011238  0.94402620     1.34900
C3370       C  0.75826022  0.82793803  0.90803674     0.83900
O3371       O  0.84875899  0.79759479  0.90245886    -0.80200
O3372       O  0.85203330  0.78044378  0.93020058    -0.90400
C3373       C  0.80370863  0.79646303  0.86477075     0.83500
O3374       O  0.79434926  0.73043582  0.93349152    -0.68600
O3375       O  0.70478268  0.75835705  0.89370056    -0.87900
C3376       C  0.79219793  0.72216765  0.91685199     0.84300
C3377       C  0.86349008  0.79184145  0.91461327     1.05900
H3378       H  0.75197055  0.74467554  0.89936036     0.37700
O3379       O  0.76187540  0.76656806  0.90058227    -1.10600
O3380       O  0.76396207  0.81542998  0.92181339    -0.67200
Ni3381     Ni  0.75760101  0.77412264  0.92581316     1.26300
O3382       O  0.79784636  0.74043957  0.90328048    -0.67500
O3383       O  0.71385574  0.75829200  0.92404089    -0.79800
C3384       C  0.76419778  0.76797786  0.96403247     0.83700
O3385       O  0.75536369  0.78029158  0.95184072    -0.66900
Ni3386     Ni  0.74413724  0.77895657  0.88155807     1.27400
Ni3387     Ni  0.80530999  0.78233833  0.90115131     1.26100
H3388       H  0.81194769  0.81057442  0.92899755     0.38200
O3389       O  0.69266115  0.62171649  0.71304993    -0.81700
O3390       O  0.71051078  0.59564264  0.79268389    -0.66400
O3391       O  0.69244323  0.58623491  0.74145611    -1.13000
C3392       C  0.60334611  0.58898698  0.76164648     1.05200
O3393       O  0.66422831  0.55653721  0.79838948    -0.79600
O3394       O  0.61488002  0.53365948  0.77429038    -0.67200
Ni3395     Ni  0.72185245  0.61250531  0.72382382     1.34900
C3396       C  0.61261124  0.52552057  0.75755095     0.83900
O3397       O  0.74178925  0.59345259  0.76393449    -0.80200
O3398       O  0.75354148  0.60599367  0.73406877    -0.90400
C3399       C  0.69283544  0.57249752  0.80233260     0.83500
O3400       O  0.73771710  0.64974305  0.73685486    -0.68600
O3401       O  0.61055423  0.58427265  0.77785119    -0.87900
C3402       C  0.73793250  0.65686550  0.75356051     0.84300
C3403       C  0.76013365  0.60112573  0.75031004     1.05900
H3404       H  0.67145585  0.61507082  0.77135979     0.37700
O3405       O  0.66625032  0.59423223  0.76881091    -1.10600
O3406       O  0.63003355  0.54342363  0.74498097    -0.67200
Ni3407     Ni  0.65487028  0.58774503  0.74354394     1.26300
O3408       O  0.72513423  0.63705201  0.76620698    -0.67500
O3409       O  0.61817504  0.59044542  0.74701772    -0.79800
C3410       C  0.66786750  0.60049825  0.70654813     0.83700
O3411       O  0.64694765  0.58261067  0.71748928    -0.66900
Ni3412     Ni  0.63813424  0.57110191  0.78739874     1.27400
Ni3413     Ni  0.70341088  0.59290019  0.76682168     1.26100
H3414       H  0.68732203  0.56542917  0.73851417     0.38200
O3415       O  0.79203908  0.53008863  0.95285984    -0.81700
O3416       O  0.76250448  0.55072941  0.87404862    -0.66400
O3417       O  0.75544473  0.53060590  0.92519048    -1.13000
C3418       C  0.75696144  0.94238245  0.90443591     1.05200
O3419       O  0.72358891  0.00309380  0.86896977    -0.79600
O3420       O  0.70214159  0.95387039  0.89246100    -0.67200
Ni3421     Ni  0.78237749  0.55924278  0.94297987     1.34900
C3422       C  0.69429169  0.95203848  0.90920759     0.83900
O3423       O  0.75879683  0.57938118  0.90443636    -0.80200
O3424       O  0.77468332  0.59055985  0.93394490    -0.90400
C3425       C  0.74119157  0.53226534  0.86340269     0.83500
O3426       O  0.81942944  0.57569729  0.92930115    -0.68600
O3427       O  0.75336737  0.95049276  0.88823957    -0.87900
C3428       C  0.82509288  0.57824939  0.91220235     0.84300
C3429       C  0.76758053  0.59729724  0.91840391     1.05900
H3430       H  0.78588024  0.51337329  0.89449588     0.37700
O3431       O  0.76217300  0.00596856  0.89808574    -1.10600
O3432       O  0.71195597  0.96985301  0.92169102    -0.67200
Ni3433     Ni  0.75608759  0.99356479  0.92321468     1.26300
O3434       O  0.80443637  0.56632450  0.89993133    -0.67500
O3435       O  0.75811931  0.95687750  0.91910037    -0.79800
C3436       C  0.77076964  0.50540608  0.95932260     0.83700
O3437       O  0.75122582  0.98478732  0.94915199    -0.66900
Ni3438     Ni  0.73934684  0.97780844  0.87932408     1.27400
Ni3439     Ni  0.76055106  0.54240272  0.89996311     1.26100
H3440       H  0.73471183  0.52480532  0.92866759     0.38200
O3441       O  0.99791063  0.76590273  0.95524882    -0.81700
O3442       O  0.99190030  0.73682275  0.87385169    -0.66400
O3443       O  0.00358304  0.73602003  0.92556258    -1.13000
C3444       C  0.59306751  0.83120019  0.91073657     1.05200
O3445       O  0.53817342  0.74417125  0.86841222    -0.79600
O3446       O  0.58337690  0.76381184  0.89469760    -0.67200
Ni3447     Ni  0.97172046  0.72901840  0.94222880     1.34900
C3448       C  0.58297450  0.75431500  0.91099507     0.83900
O3449       O  0.95864431  0.69807051  0.90023990    -0.80200
O3450       O  0.94383208  0.69158354  0.92995436    -0.90400
C3451       C  0.00970099  0.73113061  0.86451169     0.83500
O3452       O  0.95476030  0.75078926  0.92985552    -0.68600
O3453       O  0.58963113  0.82090622  0.89421848    -0.87900
C3454       C  0.95774603  0.76259814  0.91399806     0.84300
C3455       C  0.94066844  0.68262191  0.91326198     1.05900
H3456       H  0.52818836  0.79135267  0.89770352     0.37700
O3457       O  0.53307648  0.77527912  0.89973850    -1.10600
O3458       O  0.56615615  0.75578632  0.92365610    -0.67200
Ni3459     Ni  0.54108242  0.77543168  0.92550028     1.26300
O3460       O  0.97292606  0.75871768  0.90129731    -0.67500
O3461       O  0.57736604  0.81528148  0.92456583    -0.79800
C3462       C  0.52256262  0.77085250  0.96207183     0.83700
O3463       O  0.54483276  0.77391540  0.95214908    -0.66900
Ni3464     Ni  0.56330503  0.78234148  0.88205836     1.27400
Ni3465     Ni  0.99574193  0.73660445  0.89993653     1.26100
H3466       H  0.50893876  0.72068816  0.92691563     0.38200
O3467       O  0.92570869  0.62376467  0.71049269    -0.81700
O3468       O  0.93875485  0.64072254  0.79703803    -0.66400
O3469       O  0.95263595  0.63828930  0.74574931    -1.13000
C3470       C  0.91618927  0.53158850  0.75873507     1.05200
O3471       O  0.96207849  0.61475580  0.80452998    -0.79600
O3472       O  0.97895556  0.58736985  0.77888084    -0.67200
Ni3473     Ni  0.93562433  0.65484037  0.72853989     1.34900
C3474       C  0.99050123  0.59447207  0.76291370     0.83900
O3475       O  0.95999372  0.68411998  0.77155824    -0.80200
O3476       O  0.94388728  0.68918759  0.74378004    -0.90400
C3477       C  0.95565641  0.63576837  0.80791641     0.83500
O3478       O  0.89503748  0.63186494  0.73775389    -0.68600
O3479       O  0.92111725  0.53966811  0.77571682    -0.87900
C3480       C  0.88565008  0.62852403  0.75422493     0.84300
C3481       C  0.95390402  0.69930014  0.75983085     1.05900
H3482       H  0.90681090  0.58718868  0.77163862     0.37700
O3483       O  0.92867447  0.59708868  0.77063584    -1.10600
O3484       O  0.97781594  0.60033454  0.74938783    -0.67200
Ni3485     Ni  0.93698477  0.59455576  0.74534604     1.26300
O3486       O  0.90298352  0.63326027  0.76821176    -0.67500
O3487       O  0.92060389  0.55061673  0.74574778    -0.79800
C3488       C  0.93451851  0.60470073  0.70714395     0.83700
O3489       O  0.94433705  0.59377240  0.71954029    -0.66900
Ni3490     Ni  0.94074855  0.57816989  0.78917261     1.27400
Ni3491     Ni  0.94461122  0.64042041  0.77131857     1.26100
H3492       H  0.97490916  0.64904961  0.74398502     0.38200
C3493       C  0.00160527  0.67259762  0.82718743    -0.02700
C3494       C  0.96954789  0.65670109  0.82400173     0.07000
C3495       C  0.95112855  0.66504307  0.83405837    -0.02800
C3496       C  0.96449803  0.69111962  0.84539645    -0.02800
C3497       C  0.99659220  0.70703083  0.84937532     0.07100
C3498       C  0.51485487  0.69803152  0.83873676    -0.03000
Br3499     Br  0.55921007  0.72147483  0.83941041    -0.01500
Br3500     Br  0.52633698  0.65892978  0.81460384    -0.01600
Br3501     Br  0.93819916  0.70696320  0.85199995    -0.01600
Br3502     Br  0.90683400  0.63941941  0.83293777    -0.01500
C3503       C  0.63872926  0.91681093  0.90265880    -0.02700
C3504       C  0.66434744  0.92535377  0.91425829     0.07000
C3505       C  0.66369579  0.90394185  0.92722147    -0.02800
C3506       C  0.63994526  0.87320119  0.92652857    -0.02800
C3507       C  0.61593574  0.86398154  0.91355684     0.07100
C3508       C  0.61443014  0.88633678  0.90247101    -0.03000
Br3509     Br  0.57910715  0.87522045  0.88686432    -0.01500
Br3510     Br  0.63757006  0.94685487  0.88656353    -0.01600
Br3511     Br  0.64260158  0.84344366  0.94193717    -0.01600
Br3512     Br  0.69668138  0.91530037  0.94480762    -0.01500
C3513       C  0.91048194  0.62597698  0.91649512    -0.02700
C3514       C  0.91385144  0.65310503  0.90871970     0.07000
C3515       C  0.89009502  0.65234701  0.89798182    -0.02800
C3516       C  0.86271131  0.62467362  0.89552302    -0.02800
C3517       C  0.85697395  0.59926428  0.90658912     0.07100
C3518       C  0.88150282  0.59931304  0.91623109    -0.03000
Br3519     Br  0.87499074  0.56343428  0.92964288    -0.01500
Br3520     Br  0.94522734  0.62594636  0.92796066    -0.01600
Br3521     Br  0.83215504  0.62349604  0.87878465    -0.01600
Br3522     Br  0.89211367  0.68982824  0.88992848    -0.01500
C3523       C  0.51966348  0.56591642  0.76577693    -0.02700
C3524       C  0.51961711  0.59304012  0.76064155     0.07000
C3525       C  0.54704447  0.61843879  0.75431903    -0.02800
C3526       C  0.57453188  0.61703267  0.75383767    -0.02800
C3527       C  0.57464971  0.59040111  0.75994308     0.07100
C3528       C  0.54694190  0.56470582  0.76549489    -0.03000
Br3529     Br  0.54594718  0.52724360  0.77273875    -0.01500
Br3530     Br  0.98177052  0.53000385  0.77328533    -0.01600
Br3531     Br  0.61225865  0.65203659  0.74585167    -0.01600
Br3532     Br  0.54743052  0.65574299  0.74771706    -0.01500
C3533       C  0.84685988  0.64467998  0.75140893    -0.02700
C3534       C  0.85380109  0.62189671  0.75669404     0.07000
C3535       C  0.82986601  0.59250140  0.76158227    -0.02800
C3536       C  0.79893814  0.58566432  0.76035210    -0.02800
C3537       C  0.79206260  0.60792144  0.75360290     0.07100
C3538       C  0.81629582  0.63771518  0.74964915    -0.03000
Br3539     Br  0.80841069  0.66972358  0.74155227    -0.01500
Br3540     Br  0.87934303  0.68565858  0.74585066    -0.01600
Br3541     Br  0.76609950  0.54547240  0.76676588    -0.01600
Br3542     Br  0.83930101  0.56118623  0.76866068    -0.01500
C3543       C  0.72178897  0.58283017  0.83225342    -0.02700
C3544       C  0.70622817  0.56284050  0.81756436     0.07000
C3545       C  0.70501858  0.53429791  0.81691792    -0.02800
C3546       C  0.71767827  0.52500459  0.83134812    -0.02800
C3547       C  0.73145009  0.54404508  0.84695365     0.07100
C3548       C  0.73451930  0.57376922  0.84675200    -0.03000
Br3549     Br  0.75572032  0.60318577  0.86594787    -0.01500
Br3550     Br  0.72451285  0.62252207  0.83285541    -0.01600
Br3551     Br  0.71814942  0.48706489  0.82853846    -0.01600
Br3552     Br  0.68761479  0.50860317  0.79553972    -0.01500
C3553       C  0.91631977  0.80626213  0.92519381    -0.02700
C3554       C  0.89461043  0.79632218  0.91077402     0.07000
C3555       C  0.90067830  0.78467775  0.89463118    -0.02800
C3556       C  0.92520511  0.77836500  0.89442193    -0.02800
C3557       C  0.94170529  0.78080719  0.91080270     0.07100
C3558       C  0.93915585  0.79780519  0.92548643    -0.03000
Br3559     Br  0.96720957  0.81029949  0.94598120    -0.01500
Br3560     Br  0.91419352  0.83112798  0.94468184    -0.01600
Br3561     Br  0.93644229  0.76774388  0.87160446    -0.01600
Br3562     Br  0.87419482  0.77466009  0.87334549    -0.01500
C3563       C  0.63971623  0.72795948  0.90068187    -0.02700
C3564       C  0.66277120  0.74479616  0.91402560     0.07000
C3565       C  0.65454484  0.75636535  0.92951971    -0.02800
C3566       C  0.62545077  0.75448489  0.93021407    -0.02800
C3567       C  0.60521487  0.74320489  0.91499710     0.07100
C3568       C  0.61119753  0.72715152  0.90127025    -0.03000
Br3569     Br  0.57943511  0.70294840  0.88365555    -0.01500
Br3570     Br  0.64686191  0.70619232  0.88123352    -0.01600
Br3571     Br  0.61350350  0.76726627  0.95211382    -0.01600
Br3572     Br  0.68352724  0.77805891  0.94913775    -0.01500
C3573       C  0.75013771  0.63552510  0.91048187    -0.02700
C3574       C  0.77319954  0.62907786  0.91641039     0.07000
C3575       C  0.80266247  0.65365014  0.92103313    -0.02800
C3576       C  0.80919783  0.68400689  0.91920090    -0.02800
C3577       C  0.78607181  0.69055330  0.91388931     0.07100
C3578       C  0.75650663  0.66626422  0.90940602    -0.03000
Br3579     Br  0.72445441  0.67508143  0.90289861    -0.01500
Br3580     Br  0.70910247  0.60229839  0.90594890    -0.01600
Br3581     Br  0.85017362  0.71692665  0.92465439    -0.01600
Br3582     Br  0.83442086  0.64664581  0.93110292    -0.01500
C3583       C  0.78192703  0.88395820  0.91702292    -0.02700
C3584       C  0.75712962  0.85682806  0.90987386     0.07000
C3585       C  0.73181044  0.85793680  0.90190023    -0.02800
C3586       C  0.73246808  0.88597698  0.89965437    -0.02800
C3587       C  0.75755747  0.91326994  0.90638628     0.07100
C3588       C  0.78180411  0.91199042  0.91564464    -0.03000
Br3589     Br  0.81571942  0.94895621  0.92548889    -0.01500
Br3590     Br  0.81688302  0.88317738  0.92754112    -0.01600
Br3591     Br  0.69825309  0.88644099  0.88747596    -0.01600
Br3592     Br  0.69521758  0.82079847  0.89429743    -0.01500
C3593       C  0.54888443  0.94491764  0.76890630    -0.02700
C3594       C  0.52775522  0.94184877  0.75488751     0.07000
C3595       C  0.53918425  0.96008540  0.73880921    -0.02800
C3596       C  0.56947652  0.98524197  0.73862051    -0.02800
C3597       C  0.58915946  0.99098228  0.75398547     0.07100
C3598       C  0.57951904  0.96888183  0.76817078    -0.03000
Br3599     Br  0.60808297  0.97239112  0.78727226    -0.01500
Br3600     Br  0.53644631  0.91636293  0.78932414    -0.01600
Br3601     Br  0.57794373  0.52052590  0.71867729    -0.01600
Br3602     Br  0.01183011  0.95587913  0.71921593    -0.01500
C3603       C  0.80047970  0.73054851  0.77427034    -0.02700
C3604       C  0.80724403  0.74956234  0.75860591     0.07000
C3605       C  0.78509443  0.74082092  0.74442531    -0.02800
C3606       C  0.75899184  0.71152003  0.74458704    -0.02800
C3607       C  0.75621132  0.68993041  0.75806713     0.07100
C3608       C  0.77597073  0.70015074  0.77361905    -0.03000
Br3609     Br  0.77308661  0.67221055  0.79287995    -0.01500
Br3610     Br  0.82514531  0.74500428  0.79633207    -0.01600
Br3611     Br  0.72777066  0.70059798  0.72576921    -0.01600
Br3612     Br  0.79075598  0.76865514  0.72443604    -0.01500
C3613       C  0.92007021  0.96211212  0.73863113    -0.02700
C3614       C  0.90863994  0.94175558  0.75376418     0.08800
C3615       C  0.89280141  0.94786183  0.76766396    -0.02800
C3616       C  0.89348512  0.97623678  0.76826970    -0.02800
C3617       C  0.90960622  0.99896600  0.75475392     0.07100
C3618       C  0.92020531  0.99040309  0.73896207    -0.03000
Br3619     Br  0.94054168  0.52101452  0.71943030    -0.01500
Br3620     Br  0.93774749  0.95257182  0.71801506    -0.01600
Br3621     Br  0.87225804  0.98377141  0.78789020    -0.01600
Br3622     Br  0.87041382  0.91726539  0.78625283    -0.01500
C3623       C  0.93599471  0.72935809  0.77857198    -0.02700
C3624       C  0.95536120  0.72882688  0.76471761     0.07000
C3625       C  0.96843984  0.75334188  0.75207221    -0.02800
C3626       C  0.95842533  0.77503075  0.75135044    -0.02800
C3627       C  0.93499963  0.77245447  0.76322470     0.07100
C3628       C  0.92557751  0.75084750  0.77771737    -0.03000
Br3629     Br  0.89591876  0.74816195  0.79527875    -0.01500
Br3630     Br  0.92071364  0.69845056  0.79749771    -0.01600
Br3631     Br  0.97652770  0.80801170  0.73372552    -0.01600
Br3632     Br  0.99931460  0.75626302  0.73520086    -0.01500
C3633       C  0.87716515  0.84627258  0.83830118    -0.02700
C3634       C  0.86692404  0.83817506  0.82002199     0.07000
C3635       C  0.83511054  0.82050462  0.81640767    -0.02800
C3636       C  0.81429517  0.80658375  0.83098730    -0.02800
C3637       C  0.82497161  0.81229502  0.84932222     0.07100
C3638       C  0.85596494  0.83435465  0.85286069    -0.03000
Br3639     Br  0.86870948  0.85115827  0.87718306    -0.01500
Br3640     Br  0.92011769  0.87360820  0.84340861    -0.01600
Br3641     Br  0.77125242  0.77977560  0.82579813    -0.01600
Br3642     Br  0.81970189  0.81814058  0.79175294    -0.01500
C3643       C  0.73101799  0.49399935  0.00543861    -0.02700
C3644       C  0.75638975  0.50745925  0.01763334     0.07000
C3645       C  0.78614818  0.51810146  0.01079709    -0.02800
C3646       C  0.79063953  0.51561505  0.99187711    -0.02800
C3647       C  0.76534430  0.50298946  0.97950635     0.07100
C3648       C  0.73543080  0.49228612  0.98643193    -0.03000
Br3649     Br  0.70030918  0.47687004  0.97004395    -0.01500
Br3650     Br  0.68985960  0.47752937  0.01491484    -0.01600
Br3651     Br  0.83151725  0.52797987  0.98322887    -0.01600
Br3652     Br  0.82055378  0.53417226  0.02761189    -0.01500
C3653       C  0.70625953  0.99801949  0.17049119    -0.02700
C3654       C  0.69434434  0.99074951  0.15243224     0.07000
C3655       C  0.66220625  0.97585981  0.14974150    -0.02800
C3656       C  0.64226003  0.96404012  0.16483506    -0.02800
C3657       C  0.65406873  0.97099464  0.18284432     0.07100
C3658       C  0.68607097  0.98970763  0.18558413    -0.03000
Br3659     Br  0.70218379  0.00565290  0.20970196    -0.01500
Br3660     Br  0.74251880  0.50074601  0.17645782    -0.01600
Br3661     Br  0.59887588  0.93704358  0.16080883    -0.01600
Br3662     Br  0.64517605  0.97513446  0.12583664    -0.01500
C3663       C  0.73769576  0.73028257  0.01029173    -0.02700
C3664       C  0.75233359  0.75577062  0.02200073     0.07000
C3665       C  0.76634668  0.78560397  0.01442328    -0.02800
C3666       C  0.76730928  0.78984429  0.99517142    -0.02800
C3667       C  0.75419652  0.76427913  0.98339623     0.07100
C3668       C  0.73895327  0.73448979  0.99104949    -0.03000
Br3669     Br  0.72075471  0.69932939  0.97499102    -0.01500
Br3670     Br  0.71571656  0.68970686  0.02071951    -0.01600
Br3671     Br  0.78867399  0.83058977  0.98484645    -0.01600
Br3672     Br  0.78505059  0.82078303  0.03045190    -0.01500
C3673       C  0.74551500  0.90384082  0.10803713    -0.02700
C3674       C  0.75309636  0.92248797  0.09203826     0.07000
C3675       C  0.77340379  0.92098659  0.07919332    -0.02800
C3676       C  0.77901169  0.89634404  0.07969290    -0.02800
C3677       C  0.76518005  0.87364730  0.09331235     0.07100
C3678       C  0.75188530  0.87953296  0.10870104    -0.03000
Br3679     Br  0.74185896  0.85444372  0.13053201    -0.01500
Br3680     Br  0.72639742  0.91055431  0.12911188    -0.01600
Br3681     Br  0.80615752  0.89379388  0.06195808    -0.01600
Br3682     Br  0.79458202  0.95293772  0.06121341    -0.01500
C3683       C  0.78268581  0.62938134  0.09408475    -0.02700
C3684       C  0.75590288  0.60262960  0.08807716     0.07000
C3685       C  0.73040827  0.60527808  0.08217822    -0.02800
C3686       C  0.73130644  0.63396253  0.08328760    -0.02800
C3687       C  0.75735064  0.65985748  0.09076976     0.07100
C3688       C  0.78304397  0.65725852  0.09599542    -0.03000
Br3689     Br  0.81911158  0.69174383  0.10653197    -0.01500
Br3690     Br  0.81984681  0.62862000  0.09989757    -0.01600
Br3691     Br  0.69614522  0.63732543  0.07598382    -0.01600
Br3692     Br  0.69386753  0.56945415  0.07366922    -0.01500
C3693       C  0.94055609  0.89361537  0.23165357    -0.02700
C3694       C  0.93184784  0.90614562  0.24626395     0.07000
C3695       C  0.95035932  0.91559933  0.26233121    -0.02800
C3696       C  0.98009932  0.91897238  0.26208073    -0.02800
C3697       C  0.99112415  0.91204413  0.24585530     0.07100
C3698       C  0.96974635  0.89602402  0.23162611    -0.03000
Br3699     Br  0.97959051  0.87580197  0.21247171    -0.01500
Br3700     Br  0.91240952  0.87291917  0.21150801    -0.01600
Br3701     Br  0.50490280  0.93345993  0.28372636    -0.01600
Br3702     Br  0.93579358  0.92472605  0.28463903    -0.01500
C3703       C  0.72313108  0.93691762  0.22961255    -0.02700
C3704       C  0.71654802  0.94727435  0.24619991     0.07000
C3705       C  0.73713670  0.95469950  0.26110452    -0.02800
C3706       C  0.75936692  0.94545095  0.26106952    -0.02800
C3707       C  0.76120375  0.92856174  0.24603060     0.07100
C3708       C  0.74489447  0.92682482  0.22967407    -0.03000
Br3709     Br  0.74962028  0.90803413  0.20776001    -0.01500
Br3710     Br  0.70027733  0.93276295  0.20722362    -0.01600
Br3711     Br  0.78720790  0.95633244  0.28182053    -0.01600
Br3712     Br  0.73492262  0.97795932  0.28154043    -0.01500
C3713       C  0.81095067  0.84911936  0.15001924    -0.02700
C3714       C  0.79749491  0.81756114  0.15419961     0.07000
C3715       C  0.79786373  0.80872272  0.17262285    -0.02800
C3716       C  0.81038635  0.83106643  0.18665537    -0.02800
C3717       C  0.82058210  0.86213911  0.18258322     0.07100
C3718       C  0.82058257  0.87100117  0.16421743    -0.03000
Br3719     Br  0.83374654  0.91323041  0.15855978    -0.01500
Br3720     Br  0.82123257  0.86332786  0.12507999    -0.01600
Br3721     Br  0.81473174  0.81920162  0.21128066    -0.01600
Br3722     Br  0.78137080  0.76604292  0.17862894    -0.01500
C3723       C  0.61205388  0.57404251  0.22917215    -0.02700
C3724       C  0.59506853  0.57897149  0.24287663     0.07000
C3725       C  0.58646339  0.56012312  0.25888348    -0.02800
C3726       C  0.59002624  0.53398751  0.25947916    -0.02800
C3727       C  0.60105084  0.52581587  0.24396145     0.07100
C3728       C  0.61452269  0.54735067  0.22956527    -0.03000
Br3729     Br  0.63671889  0.54022184  0.21039891    -0.01500
Br3730     Br  0.63356536  0.60448031  0.21034706    -0.01600
Br3731     Br  0.57260256  0.00726873  0.28223590    -0.01600
Br3732     Br  0.56850976  0.56834914  0.27998719    -0.01500
C3733       C  0.62447915  0.83820555  0.24203930    -0.02700
C3734       C  0.60068433  0.84489637  0.24398314     0.07000
C3735       C  0.57059406  0.82079022  0.24754807    -0.02800
C3736       C  0.56467856  0.79023239  0.24894825    -0.02800
C3737       C  0.58911938  0.78412222  0.24752366     0.07100
C3738       C  0.61908497  0.80850633  0.24473084    -0.03000
Br3739     Br  0.65399332  0.80286471  0.24773601    -0.01500
Br3740     Br  0.66576068  0.87035206  0.23807933    -0.01600
Br3741     Br  0.52427098  0.75746913  0.25503906    -0.01600
Br3742     Br  0.53824225  0.83005907  0.25169329    -0.01500
C3743       C  0.95053093  0.53246321  0.26191736    -0.02700
C3744       C  0.93142113  0.52283856  0.24604056     0.07000
C3745       C  0.93576283  0.54511426  0.23260693    -0.02800
C3746       C  0.96152407  0.57479775  0.23356502    -0.02800
C3747       C  0.98385747  0.58239748  0.24753585     0.07100
C3748       C  0.97662755  0.56218069  0.26265957    -0.03000
Br3749     Br  0.00246879  0.57445625  0.28426787    -0.01500
Br3750     Br  0.94258354  0.50493533  0.28234847    -0.01600
Br3751     Br  0.46679521  0.60370019  0.21307917    -0.01600
Br3752     Br  0.90634577  0.53542393  0.21284411    -0.01500
C3753       C  0.68880470  0.77181145  0.22536943    -0.02700
C3754       C  0.67791673  0.75130898  0.24047289     0.07000
C3755       C  0.69929608  0.75252560  0.25369308    -0.02800
C3756       C  0.72919842  0.77772073  0.25421253    -0.02800
C3757       C  0.73802561  0.80180014  0.24143873     0.07100
C3758       C  0.71884981  0.79735152  0.22595593    -0.03000
Br3759     Br  0.73192134  0.82720001  0.20633848    -0.01500
Br3760     Br  0.66194354  0.76746183  0.20496322    -0.01600
Br3761     Br  0.75785635  0.77948882  0.27277678    -0.01600
Br3762     Br  0.68727017  0.72020129  0.27169148    -0.01500
C3763       C  0.51563436  0.74005462  0.01064195    -0.02700
C3764       C  0.50383874  0.75655886  0.01991608     0.07000
C3765       C  0.00441411  0.78250685  0.01141739    -0.02800
C3766       C  0.01465004  0.78893698  0.99303529    -0.02800
C3767       C  0.52257502  0.76987578  0.98255469     0.07100
C3768       C  0.52402098  0.74598995  0.99189569    -0.03000
Br3769     Br  0.53684646  0.72093559  0.97899763    -0.01500
Br3770     Br  0.52182359  0.71032767  0.02403143    -0.01600
Br3771     Br  0.02031344  0.82579523  0.98134466    -0.01600
Br3772     Br  0.99215673  0.80839711  0.02390777    -0.01500
C3773       C  0.65185922  0.75545539  0.11124067    -0.02700
C3774       C  0.66387562  0.74690992  0.09638168     0.07000
C3775       C  0.64335121  0.72505198  0.08368406    -0.02800
C3776       C  0.61245650  0.71774303  0.08319526    -0.02800
C3777       C  0.60198550  0.73192340  0.09563941     0.07100
C3778       C  0.62066390  0.74749466  0.11106209    -0.03000
Br3779     Br  0.60478954  0.75938999  0.13162886    -0.01500
Br3780     Br  0.67805294  0.77960511  0.13120169    -0.01600
Br3781     Br  0.58459670  0.68850154  0.06543989    -0.01600
Br3782     Br  0.65779648  0.70542601  0.06687961    -0.01500
C3783       C  0.90403355  0.77648442  0.10196889    -0.02700
C3784       C  0.90627684  0.75731729  0.08862022     0.07000
C3785       C  0.88532642  0.74709057  0.07364889    -0.02800
C3786       C  0.85950005  0.75131542  0.07380336    -0.02800
C3787       C  0.85547395  0.76755857  0.08835028     0.07100
C3788       C  0.87914357  0.78204159  0.10158989    -0.03000
Br3789     Br  0.87663208  0.80852579  0.11983360    -0.01500
Br3790     Br  0.93510972  0.79543201  0.12093036    -0.01600
Br3791     Br  0.82765103  0.73073874  0.05547380    -0.01600
Br3792     Br  0.89039622  0.72552638  0.05338731    -0.01500
C3793       C  0.58615228  0.85636972  0.07697716    -0.02700
C3794       C  0.58337240  0.83682933  0.09180472     0.07000
C3795       C  0.60015163  0.84999269  0.10819664    -0.02800
C3796       C  0.62334049  0.88119331  0.10840417    -0.02800
C3797       C  0.62928647  0.89919012  0.09236430     0.07100
C3798       C  0.60896953  0.88733661  0.07728656    -0.03000
Br3799     Br  0.61384462  0.91342754  0.05642010    -0.01500
Br3800     Br  0.55899188  0.84113936  0.05596122    -0.01600
Br3801     Br  0.64845075  0.89838692  0.13004730    -0.01600
Br3802     Br  0.59307351  0.82536086  0.12996777    -0.01500
C3803       C  0.86209589  0.60847092  0.07092225    -0.02700
C3804       C  0.85333765  0.58764883  0.08597170     0.07000
C3805       C  0.87592402  0.59278513  0.09944514    -0.02800
C3806       C  0.90390212  0.62090704  0.10004993    -0.02800
C3807       C  0.91085139  0.64367070  0.08639851     0.07100
C3808       C  0.89119167  0.63566088  0.07084797    -0.03000
Br3809     Br  0.90299388  0.66239530  0.04971742    -0.01500
Br3810     Br  0.83339172  0.60265429  0.05137707    -0.01600
Br3811     Br  0.93241286  0.62826406  0.12005691    -0.01600
Br3812     Br  0.86864837  0.56118252  0.11722331    -0.01500
C3813       C  0.53246985  0.71347724  0.18579209    -0.02700
C3814       C  0.54448650  0.69380476  0.18233724     0.07000
C3815       C  0.54310019  0.68317135  0.16420080    -0.02800
C3816       C  0.52953547  0.69169924  0.14991956    -0.02800
C3817       C  0.51861741  0.71216801  0.15340763     0.07100
C3818       C  0.52067044  0.72343675  0.17130382    -0.03000
Br3819     Br  0.00494860  0.74902419  0.17658642    -0.01500
Br3820     Br  0.52931924  0.72498277  0.21043871    -0.01600
Br3821     Br  0.52578167  0.67517874  0.12553488    -0.01600
Br3822     Br  0.56114210  0.65812241  0.15866848    -0.01500
C3823       C  0.90013521  0.84587719  0.65945649    -0.02700
C3824       C  0.91812389  0.83614975  0.64988884     0.07000
C3825       C  0.94245065  0.83530166  0.65912722    -0.02800
C3826       C  0.94878016  0.84411547  0.67774083    -0.02800
C3827       C  0.93019385  0.85288921  0.68751476     0.07100
C3828       C  0.90589045  0.85387507  0.67825852    -0.03000
Br3829     Br  0.87987269  0.86527800  0.69145106    -0.01500
Br3830     Br  0.86815629  0.84912482  0.64653445    -0.01600
Br3831     Br  0.98409493  0.84586372  0.68962003    -0.01600
Br3832     Br  0.96711708  0.82200134  0.64613380    -0.01500
C3833       C  0.84707171  0.94933437  0.34391542    -0.02700
C3834       C  0.83576796  0.92166884  0.35391050     0.07000
C3835       C  0.83153418  0.89516144  0.34480316    -0.02800
C3836       C  0.83720897  0.89608700  0.32574989    -0.02800
C3837       C  0.84868909  0.92381888  0.31586315     0.07100
C3838       C  0.85442310  0.95058393  0.32512667    -0.03000
Br3839     Br  0.87187950  0.98881276  0.31182698    -0.01500
Br3840     Br  0.85021337  0.98505526  0.35552928    -0.01600
Br3841     Br  0.82863090  0.85916206  0.31293927    -0.01600
Br3842     Br  0.81911234  0.85787287  0.35850601    -0.01500
C3843       C  0.86859427  0.89371809  0.49975996    -0.02700
C3844       C  0.84265870  0.87284443  0.48944801     0.07000
C3845       C  0.83049560  0.84124958  0.49300192    -0.02800
C3846       C  0.84553403  0.83074977  0.50525410    -0.02800
C3847       C  0.87215243  0.85174791  0.51539130     0.07100
C3848       C  0.88424684  0.88350098  0.51153338    -0.03000
Br3849     Br  0.92450866  0.91417306  0.51971738    -0.01500
Br3850     Br  0.88127658  0.93686353  0.49921908    -0.01600
Br3851     Br  0.83115481  0.78727831  0.50571142    -0.01600
Br3852     Br  0.79234626  0.81170406  0.48177458    -0.01500
C3853       C  0.67739634  0.61560403  0.65541380    -0.02700
C3854       C  0.67574819  0.58847923  0.64910580     0.07000
C3855       C  0.66952068  0.56456307  0.66161618    -0.02800
C3856       C  0.66509377  0.56779195  0.68036235    -0.02800
C3857       C  0.66618744  0.59474351  0.68663282     0.07100
C3858       C  0.67187140  0.61843879  0.67407420    -0.03000
Br3859     Br  0.66957813  0.65362410  0.68220231    -0.01500
Br3860     Br  0.68616547  0.64831589  0.63827984    -0.01600
Br3861     Br  0.65826899  0.53546768  0.69745384    -0.01600
Br3862     Br  0.66633099  0.52691624  0.65285612    -0.01500
C3863       C  0.52476452  0.91424064  0.58962686    -0.02700
C3864       C  0.50456564  0.91164813  0.57517830     0.07000
C3865       C  0.51761672  0.92793284  0.55872746    -0.02800
C3866       C  0.54804321  0.95301475  0.55888720    -0.02800
C3867       C  0.56614264  0.95997876  0.57516261     0.07100
C3868       C  0.55563539  0.93785682  0.58936543    -0.03000
Br3869     Br  0.58382322  0.93954812  0.60820277    -0.01500
Br3870     Br  0.51046109  0.88482796  0.60951964    -0.01600
Br3871     Br  0.56354984  0.97776858  0.53699593    -0.01600
Br3872     Br  0.99468005  0.91722961  0.53644434    -0.01500
C3873       C  0.79994575  0.72512113  0.59785968    -0.02700
C3874       C  0.80754049  0.74578150  0.58296055     0.07000
C3875       C  0.78489679  0.73895663  0.56925074    -0.02800
C3876       C  0.75760573  0.71014305  0.56883633    -0.02800
C3877       C  0.75277425  0.68708176  0.58183568     0.07100
C3878       C  0.77343628  0.69551896  0.59702750    -0.03000
Br3879     Br  0.76805887  0.66597784  0.61580378    -0.01500
Br3880     Br  0.82591605  0.73712130  0.61936205    -0.01600
Br3881     Br  0.72685596  0.70244921  0.55024962    -0.01600
Br3882     Br  0.79125752  0.76960346  0.55105980    -0.01500
C3883       C  0.55456438  0.89717536  0.34289248    -0.02700
C3884       C  0.58070196  0.91548961  0.35392188     0.07000
C3885       C  0.60722340  0.93952753  0.34573142    -0.02800
C3886       C  0.60773209  0.94482800  0.32667983    -0.02800
C3887       C  0.58216547  0.92576359  0.31565030     0.07100
C3888       C  0.55552745  0.90198666  0.32373328    -0.03000
Br3889     Br  0.52097005  0.87532975  0.30835825    -0.01500
Br3890     Br  0.51787955  0.86447251  0.35379731    -0.01600
Br3891     Br  0.64394894  0.97763256  0.31531857    -0.01600
Br3892     Br  0.64270640  0.96592666  0.36053669    -0.01500
C3893       C  0.48210864  0.91724191  0.44490467    -0.02700
C3894       C  0.49342655  0.90968601  0.42918613     0.07000
C3895       C  0.97226939  0.89000662  0.41645843    -0.02800
C3896       C  0.94158712  0.88328758  0.41667135    -0.02800
C3897       C  0.93165571  0.89605553  0.43032387     0.07100
C3898       C  0.95069767  0.90967686  0.44584656    -0.03000
Br3899     Br  0.93429167  0.91748326  0.46767974    -0.01500
Br3900     Br  0.50877661  0.93901392  0.46528687    -0.01600
Br3901     Br  0.91314951  0.85722106  0.39793464    -0.01600
Br3902     Br  0.98501186  0.87138423  0.39791807    -0.01500
C3903       C  0.69494351  0.92416117  0.40427102    -0.02700
C3904       C  0.68882093  0.93708537  0.41982874     0.07000
C3905       C  0.71193890  0.95094306  0.43349843    -0.02800
C3906       C  0.73751481  0.94645489  0.43350805    -0.02800
C3907       C  0.74078870  0.92886903  0.41956773     0.07100
C3908       C  0.72190847  0.92186132  0.40372320    -0.03000
Br3909     Br  0.73334061  0.91096799  0.38096830    -0.01500
Br3910     Br  0.66494820  0.90559991  0.38477936    -0.01600
Br3911     Br  0.76905946  0.96579266  0.45213595    -0.01600
Br3912     Br  0.70790837  0.97500446  0.45276277    -0.01500
C3913       C  0.64068141  0.51855041  0.48017111    -0.02700
C3914       C  0.62882692  0.98377341  0.48549377     0.07000
C3915       C  0.62877680  0.97462466  0.50387897    -0.02800
C3916       C  0.64219522  0.49901366  0.51615102    -0.02800
C3917       C  0.65044999  0.52985938  0.51301505     0.07100
C3918       C  0.64980848  0.53959093  0.49489971    -0.03000
Br3919     Br  0.66136001  0.58172568  0.49030520    -0.01500
Br3920     Br  0.64936352  0.53411161  0.45540247    -0.01600
Br3921     Br  0.64477103  0.98471224  0.54261203    -0.01600
Br3922     Br  0.61312567  0.93197636  0.50966362    -0.01500
C3923       C  0.55883179  0.67065013  0.33860915    -0.02700
C3924       C  0.58327516  0.67722206  0.35083613     0.07000
C3925       C  0.61044520  0.67915725  0.34421634    -0.02800
C3926       C  0.61290654  0.67389776  0.32544743    -0.02800
C3927       C  0.58803400  0.66639174  0.31330889     0.07100
C3928       C  0.56111063  0.66516135  0.31991734    -0.03000
Br3929     Br  0.52754911  0.65696737  0.30338628    -0.01500
Br3930     Br  0.52157747  0.66803849  0.34783096    -0.01600
Br3931     Br  0.64972923  0.67533222  0.31656687    -0.01600
Br3932     Br  0.64340010  0.68711918  0.36113928    -0.01500
C3933       C  0.60283023  0.56041405  0.40709981    -0.02700
C3934       C  0.59075311  0.53768907  0.42080294     0.07000
C3935       C  0.57761975  0.54242916  0.43669908    -0.02800
C3936       C  0.57130589  0.56669369  0.43717986    -0.02800
C3937       C  0.57836463  0.58639251  0.42175829     0.07100
C3938       C  0.59696184  0.58489257  0.40762722    -0.03000
Br3939     Br  0.61516043  0.61640093  0.38899184    -0.01500
Br3940     Br  0.62806848  0.55821800  0.38783568    -0.01600
Br3941     Br  0.55188598  0.57120556  0.45884229    -0.01600
Br3942     Br  0.56959107  0.01671789  0.46042932    -0.01500
C3943       C  0.56346959  0.77205858  0.41509955    -0.02700
C3944       C  0.58821096  0.76919317  0.42220156     0.07000
C3945       C  0.61504063  0.79582688  0.42840551    -0.02800
C3946       C  0.61647290  0.82427289  0.42835281    -0.02800
C3947       C  0.59076729  0.82664121  0.42303922     0.07100
C3948       C  0.56454489  0.80072929  0.41583083    -0.03000
Br3949     Br  0.52954055  0.80415102  0.40818635    -0.01500
Br3950     Br  0.52747991  0.73657789  0.40562624    -0.01600
Br3951     Br  0.65428307  0.86028986  0.43567176    -0.01600
Br3952     Br  0.65040799  0.79433709  0.43785765    -0.01500
C3953       C  0.68660835  0.77933133  0.40380957    -0.02700
C3954       C  0.68213372  0.75544594  0.41608554     0.07000
C3955       C  0.70806952  0.75814045  0.42548459    -0.02800
C3956       C  0.73623192  0.78621762  0.42539304    -0.02800
C3957       C  0.73891564  0.81197697  0.41596799     0.07100
C3958       C  0.71498356  0.80727647  0.40369910    -0.03000
Br3959     Br  0.72081554  0.83906711  0.38684040    -0.01500
Br3960     Br  0.65330017  0.77545445  0.38836539    -0.01600
Br3961     Br  0.77213434  0.78908044  0.43679793    -0.01600
Br3962     Br  0.70515409  0.72278364  0.43772092    -0.01500
C3963       C  0.91205072  0.52482225  0.41361859    -0.02700
C3964       C  0.91319177  0.50456677  0.42679459     0.07000
C3965       C  0.93301088  0.51718710  0.44215239    -0.02800
C3966       C  0.95383577  0.54910917  0.44305510    -0.02800
C3967       C  0.95687429  0.56816804  0.42785972     0.07100
C3968       C  0.93380007  0.55631785  0.41409699    -0.03000
Br3969     Br  0.93211275  0.58333550  0.39565989    -0.01500
Br3970     Br  0.88105557  0.50955091  0.39448016    -0.01600
Br3971     Br  0.47892489  0.56449330  0.46538371    -0.01600
Br3972     Br  0.93544388  0.98667822  0.46376822    -0.01500
C3973       C  0.90067472  0.56704643  0.66168615    -0.02700
C3974       C  0.92056722  0.59042699  0.64954789     0.07000
C3975       C  0.94784395  0.61541260  0.65644551    -0.02800
C3976       C  0.95426291  0.61775901  0.67544126    -0.02800
C3977       C  0.93287712  0.59601368  0.68771182     0.07100
C3978       C  0.90629723  0.57034917  0.68082145    -0.03000
Br3979     Br  0.87713676  0.54054938  0.69770196    -0.01500
Br3980     Br  0.86566106  0.53070421  0.65207956    -0.01600
Br3981     Br  0.99244060  0.65072873  0.68492146    -0.01600
Br3982     Br  0.97700766  0.64596918  0.63985653    -0.01500
C3983       C  0.91063973  0.72163714  0.59868942    -0.02700
C3984       C  0.92210169  0.74304010  0.58403386     0.07000
C3985       C  0.94345546  0.74202849  0.57191383    -0.02800
C3986       C  0.94829489  0.71676214  0.57208645    -0.02800
C3987       C  0.93203430  0.69229676  0.58447096     0.07100
C3988       C  0.91483712  0.69584725  0.59863045    -0.03000
Br3989     Br  0.89382658  0.66391788  0.61671450    -0.01500
Br3990     Br  0.88907942  0.72695860  0.61882004    -0.01600
Br3991     Br  0.97646977  0.71500853  0.55485095    -0.01600
Br3992     Br  0.96730427  0.77608778  0.55563118    -0.01500
C3993       C  0.88872604  0.97761777  0.58180386    -0.02700
C3994       C  0.92325985  0.50587423  0.57240646     0.07000
C3995       C  0.94354282  0.49915958  0.56295431    -0.02800
C3996       C  0.93031851  0.96554849  0.56325560    -0.02800
C3997       C  0.90687594  0.94242012  0.57388700     0.07100
C3998       C  0.88458242  0.94779521  0.58196406    -0.03000
Br3999     Br  0.84971495  0.91479282  0.59408622    -0.01500
Br4000     Br  0.86059047  0.98627611  0.59481626    -0.01600
Br4001     Br  0.96536720  0.96249166  0.55576790    -0.01600
Br4002     Br  0.97697344  0.53013099  0.54903244    -0.01500
C4003       C  0.79393744  0.61656439  0.57257988    -0.02700
C4004       C  0.76710334  0.58991117  0.57844104     0.07000
C4005       C  0.76983755  0.56527531  0.58573217    -0.02800
C4006       C  0.79889082  0.56667993  0.58595633    -0.02800
C4007       C  0.82518717  0.59271846  0.57887259     0.07100
C4008       C  0.82244317  0.61782404  0.57264341    -0.03000
Br4009     Br  0.85779956  0.65461001  0.56368842    -0.01500
Br4010     Br  0.79246425  0.65231628  0.56422719    -0.01600
Br4011     Br  0.80226594  0.53230394  0.59469342    -0.01600
Br4012     Br  0.73365290  0.52915203  0.59429115    -0.01500
C4013       C  0.56013733  0.60784686  0.59683787    -0.02700
C4014       C  0.54142120  0.60339805  0.58127307     0.07000
C4015       C  0.54919824  0.59499423  0.56446496    -0.02800
C4016       C  0.56912319  0.58278629  0.56447580    -0.02800
C4017       C  0.58490354  0.58325798  0.58084934     0.07100
C4018       C  0.58286273  0.59934325  0.59628467    -0.03000
Br4019     Br  0.61138026  0.61080241  0.61669920    -0.01500
Br4020     Br  0.55454732  0.62544404  0.61912011    -0.01600
Br4021     Br  0.57183410  0.56327305  0.54228702    -0.01600
Br4022     Br  0.03409055  0.60230827  0.54097123    -0.01500
C4023       C  0.51721599  0.65479538  0.52031370    -0.02700
C4024       C  0.98588127  0.63974615  0.51751689     0.07000
C4025       C  0.97551260  0.63621022  0.49913660    -0.02800
C4026       C  0.49512051  0.64694872  0.48409505    -0.02800
C4027       C  0.52674069  0.65777948  0.48714623     0.07100
C4028       C  0.53786261  0.66283459  0.50542158    -0.03000
Br4029     Br  0.58126093  0.68062248  0.51008128    -0.01500
Br4030     Br  0.53278586  0.66889123  0.54480443    -0.01600
Br4031     Br  0.98302473  0.64829586  0.45999481    -0.01600
Br4032     Br  0.93213744  0.61728596  0.49390634    -0.01500
loop_ 
_geom_bond_atom_site_label_1 
_geom_bond_atom_site_label_2 
_geom_bond_distance 
_geom_bond_site_symmetry_2 
_ccdc_geom_bond_type 
O1           Ni7   1.905       .  S
O1           C22   1.262       .  A
O2          Ni25   1.898       .  S
O2           C11   1.263       .  A
O3           Ni7   1.905       .  S
O3          Ni25   1.895       .  S
O3          Ni19   1.917       .  S
O3           H26   0.966       .  S
C4           O21   1.283       .  A
C4           O13   1.282       .  A
C4          C983   1.488       .  S
O5          Ni24   1.952       .  S
O5           C11   1.274       .  A
O6          Ni24   1.896       .  S
O6            C8   1.267       .  A
Ni7          O12   1.897       .  S
Ni7        O2026   1.929       .  S
C8           O18   1.278       .  A
C8          C963   1.487       .  S
O9        Ni2041   1.895       .  S
O9           C15   1.267   1_655  A
O10       Ni2023   1.930       .  S
O10          C15   1.279   1_655  A
C11        C1000   1.488       .  S
O12          C14   1.265       .  A
O13         Ni24   1.930       .  S
C14          O20   1.272       .  A
C14         C970   1.483       .  S
C15         C990   1.472       .  S
H16          O17   0.967       .  S
O17         Ni25   1.907       .  S
O17         Ni19   1.918       .  S
O17         Ni24   1.894       .  S
O18         Ni19   1.945       .  S
Ni19         O23   1.938       .  S
Ni19         O21   1.939       .  S
O20         Ni25   1.941       .  S
C22          O23   1.275       .  A
C22         C950   1.477       .  S
Ni25       O2025   1.894       .  S
O27         Ni33   1.907       .  S
O27          C48   1.266       .  A
O28         Ni51   1.897       .  S
O28          C37   1.264       .  A
O29         Ni33   1.923       .  S
O29         Ni51   1.919       .  S
O29         Ni45   1.943       .  S
O29          H52   0.966       .  S
C30          O47   1.280       .  A
C30          O39   1.283       .  A
C30         C930   1.497       .  S
O31         Ni50   1.949       .  S
O31          C37   1.274       .  A
O32         Ni50   1.894       .  S
O32          C34   1.267       .  A
Ni33         O36   1.918   1_455  S
Ni33         O38   1.896       .  S
C34          O44   1.282       .  A
C34         C920   1.497       .  S
O35         Ni51   1.920       .  S
O35          C41   1.266   1_455  A
O36          C41   1.266       .  A
C37        C1003   1.481       .  S
O38          C40   1.269       .  A
O39         Ni50   1.945       .  S
C40          O46   1.275       .  A
C40         C913   1.497       .  S
C41        C2959   1.484       .  S
H42          O43   0.966       .  S
O43         Ni51   1.907       .  S
O43         Ni45   1.907       .  S
O43         Ni50   1.895       .  S
O44         Ni45   1.958       .  S
Ni45         O49   1.925       .  S
Ni45         O47   1.933       .  S
O46         Ni51   1.944       .  S
C48          O49   1.274       .  A
C48         C900   1.475       .  S
O53         Ni59   1.911       .  S
O53          C74   1.265       .  A
O54         Ni77   1.908       .  S
O54          C63   1.270       .  A
O55         Ni59   1.899       .  S
O55         Ni77   1.893       .  S
O55         Ni71   1.916       .  S
O55          H78   0.965       .  S
C56          O73   1.282       .  A
C56          O65   1.283       .  A
C56         C923   1.485       .  S
O57         Ni76   1.952       .  S
O57          C63   1.276       .  A
O58         Ni76   1.897       .  S
O58          C60   1.268       .  A
Ni59         O64   1.896       .  S
Ni59       O1070   1.920       .  S
C60          O70   1.278       .  A
C60         C880   1.492       .  S
O61       Ni1085   1.915       .  S
O61          C67   1.275   1_565  A
O62       Ni1067   1.914       .  S
O62          C67   1.275   1_565  A
C63         C890   1.495       .  S
O64          C66   1.267       .  A
O65         Ni76   1.928       .  S
C66          O72   1.274       .  A
C66         C870   1.498   1_455  S
C67         C910   1.482       .  S
H68          O69   0.969       .  S
O69         Ni77   1.907       .  S
O69         Ni71   1.908       .  S
O69         Ni76   1.884       .  S
O70         Ni71   1.945       .  S
Ni71         O75   1.933       .  S
Ni71         O73   1.937       .  S
O72         Ni77   1.947       .  S
C74          O75   1.275       .  A
C74         C860   1.478       .  S
Ni77       O1069   1.901       .  S
O79         Ni85   1.907       .  S
O79         C100   1.261       .  A
O80        Ni103   1.894       .  S
O80          C89   1.265       .  A
O81         Ni85   1.913       .  S
O81        Ni103   1.905       .  S
O81         Ni97   1.931       .  S
O81         H104   0.968       .  S
C82          O99   1.282       .  A
C82          O91   1.285       .  A
C82         C853   1.512       .  S
O83        Ni102   1.951       .  S
O83          C89   1.276       .  A
O84        Ni102   1.894       .  S
O84          C86   1.268       .  A
Ni85         O88   1.919       .  S
Ni85         O90   1.890       .  S
C86          O96   1.280       .  A
C86         C980   1.490       .  S
O87        Ni103   1.931       .  S
O87          C93   1.274   1_545  A
O88          C93   1.275   1_545  A
C89         C893   1.479       .  S
O90          C92   1.264       .  A
O91        Ni102   1.945       .  S
C92          O98   1.268       .  A
C92         C993   1.474       .  S
C93        C1851   1.499       .  S
H94          O95   0.966       .  S
O95        Ni103   1.913       .  S
O95         Ni97   1.902       .  S
O95        Ni102   1.886       .  S
O96         Ni97   1.955       .  S
Ni97        O101   1.922       .  S
Ni97         O99   1.938       .  S
O98        Ni103   1.923       .  S
C100        O101   1.271       .  A
C100        C830   1.463       .  S
O105       Ni111   1.910       .  S
O105        C126   1.262       .  A
O106       Ni129   1.898       .  S
O106        C115   1.267       .  A
O107       Ni111   1.913       .  S
O107       Ni129   1.914       .  S
O107       Ni123   1.922       .  S
O107        H130   0.966       .  S
C108        O125   1.281       .  A
C108        O117   1.285       .  A
C108        C883   1.499       .  S
O109       Ni128   1.964       .  S
O109        C115   1.281       .  A
O110       Ni128   1.916       .  S
O110        C112   1.271       .  A
Ni111       O114   1.911       .  S
Ni111       O116   1.899       .  S
C112        O122   1.282       .  A
C112        C933   1.503       .  S
O113       Ni129   1.925       .  S
O113        C119   1.274       .  A
O114        C119   1.274       .  A
C115        C820   1.504       .  S
O116        C118   1.266       .  A
O117       Ni128   1.938       .  S
C118        O124   1.276       .  A
C118       C1948   1.498       .  S
C119        C873   1.486       .  S
H120        O121   0.966       .  S
O121       Ni129   1.900       .  S
O121       Ni123   1.912       .  S
O121       Ni128   1.895       .  S
O122       Ni123   1.964       .  S
Ni123       O127   1.942       .  S
Ni123       O125   1.931       .  S
O124       Ni129   1.955       .  S
C126        O127   1.275       .  A
C126        C810   1.482       .  S
O131       Ni137   1.911       .  S
O131        C152   1.263       .  A
O132       Ni155   1.902       .  S
O132        C141   1.264       .  A
O133       Ni137   1.911       .  S
O133       Ni155   1.908       .  S
O133       Ni149   1.926       .  S
O133        H156   0.967       .  S
C134        O151   1.284       .  A
C134        O143   1.287       .  A
C134        C960   1.498       .  S
O135       Ni154   1.966       .  S
O135        C141   1.281       .  A
O136       Ni154   1.905       .  S
O136        C138   1.269       .  A
Ni137       O140   1.927       .  S
Ni137       O142   1.902       .  S
C138        O148   1.284       .  A
C138        C850   1.510       .  S
O139       Ni155   1.924       .  S
O139        C145   1.276       .  A
O140        C145   1.276       .  A
C141        C823   1.522       .  S
O142        C144   1.267       .  A
O143       Ni154   1.943       .  S
C144        O150   1.270       .  A
C144       C2856   1.494       .  S
C145        C973   1.478       .  S
H146        O147   0.966       .  S
O147       Ni155   1.901       .  S
O147       Ni149   1.902       .  S
O147       Ni154   1.881       .  S
O148       Ni149   1.971       .  S
Ni149       O153   1.938       .  S
Ni149       O151   1.935       .  S
O150       Ni155   1.941       .  S
C152        O153   1.276       .  A
C152        C800   1.484       .  S
O157       Ni163   1.905       .  S
O157        C178   1.262   1_455  A
O158       Ni181   1.896       .  S
O158        C167   1.267       .  A
O159       Ni163   1.892       .  S
O159       Ni181   1.890       .  S
O159      Ni2191   1.918   1_455  S
O159        H182   0.966       .  S
C160        O177   1.283       .  A
C160        O169   1.286       .  A
C160        C760   1.506       .  S
O161       Ni180   1.969       .  S
O161       C2183   1.282       .  A
O162       Ni180   1.903       .  S
O162        C164   1.270       .  A
Ni163       O166   1.928       .  S
Ni163       O168   1.888       .  S
C164        O174   1.281       .  A
C164        C783   1.500       .  S
O165       Ni181   1.907       .  S
O165        C171   1.270       .  A
O166        C171   1.280       .  A
C167       O2177   1.277   1_455  A
C167        C793   1.490       .  S
O168        C170   1.264       .  A
O169       Ni180   1.948       .  S
C170        O176   1.276       .  A
C170        C770   1.484       .  S
C171        C753   1.488       .  S
H172       O2189   0.966       .  S
O173       Ni175   1.910       .  S
O173       Ni180   1.893       .  S
O173      Ni2197   1.910       .  S
O173       H2188   0.966       .  S
O174       Ni175   1.957       .  S
Ni175       O179   1.943       .  S
Ni175       O177   1.940       .  S
Ni175      O2175   1.926       .  S
O176       Ni181   1.954       .  S
C178       O2195   1.279       .  A
C178        C740   1.478   1_655  S
O179       C2194   1.276       .  A
Ni181      O2189   1.906   1_455  S
O183       Ni189   1.910       .  S
O183        C204   1.263       .  A
O184       Ni207   1.901       .  S
O184        C193   1.268       .  A
O185       Ni189   1.905       .  S
O185       Ni207   1.903       .  S
O185       Ni201   1.920       .  S
O185        H208   0.966       .  S
C186        O203   1.284       .  A
C186        O195   1.282       .  A
C186        C700   1.502       .  S
O187       Ni206   1.953       .  S
O187        C193   1.276       .  A
O188       Ni206   1.899       .  S
O188        C190   1.269       .  A
Ni189       O192   1.919       .  S
Ni189       O194   1.892       .  S
C190        O200   1.278       .  A
C190       C2739   1.492   1_455  S
O191       Ni207   1.918       .  S
O191        C197   1.273       .  A
O192        C197   1.276       .  A
C193        C790   1.488       .  S
O194        C196   1.266       .  A
O195       Ni206   1.929       .  S
C196        O202   1.273       .  A
C196        C730   1.486       .  S
C197        C713   1.482       .  S
H198        O199   0.966       .  S
O199       Ni207   1.912       .  S
O199       Ni201   1.909       .  S
O199       Ni206   1.893       .  S
O200       Ni201   1.948       .  S
Ni201       O205   1.936       .  S
Ni201       O203   1.943       .  S
O202       Ni207   1.943       .  S
C204        O205   1.275       .  A
C204        C903   1.479       .  S
O209       Ni215   1.916       .  S
O209        C230   1.264       .  A
O210       Ni233   1.897       .  S
O210        C219   1.266       .  A
O211       Ni215   1.908       .  S
O211       Ni233   1.906       .  S
O211       Ni227   1.921       .  S
O211        H234   0.967       .  S
C212        O229   1.282       .  A
C212        O221   1.284       .  A
C212       C1728   1.502       .  S
O213       Ni232   1.961       .  S
O213        C219   1.278       .  A
O214       Ni232   1.896       .  S
O214        C216   1.268       .  A
Ni215       O218   1.920       .  S
Ni215       O220   1.894       .  S
C216        O226   1.279       .  A
C216        C670   1.493       .  S
O217       Ni233   1.916       .  S
O217        C223   1.272       .  A
O218        C223   1.275       .  A
C219        C693   1.488       .  S
O220        C222   1.267       .  A
O221       Ni232   1.939       .  S
C222        O228   1.271       .  A
C222        C683   1.486       .  S
C223        C733   1.485       .  S
H224        O225   0.966       .  S
O225       Ni233   1.903       .  S
O225       Ni227   1.910       .  S
O225       Ni232   1.896       .  S
O226       Ni227   1.953       .  S
Ni227       O231   1.943       .  S
Ni227       O229   1.932       .  S
O228       Ni233   1.937       .  S
C230        O231   1.276       .  A
C230        C813   1.488       .  S
O235       Ni241   1.906       .  S
O235        C256   1.262       .  A
O236       Ni259   1.906       .  S
O236        C245   1.268       .  A
O237       Ni241   1.909       .  S
O237       Ni259   1.906       .  S
O237       Ni253   1.925       .  S
O237        H260   0.967       .  S
C238        O255   1.283       .  A
C238        O247   1.284       .  A
C238        C663   1.490       .  S
O239       Ni258   1.955       .  S
O239        C245   1.277       .  A
O240       Ni258   1.903       .  S
O240        C242   1.270       .  A
Ni241       O244   1.918       .  S
Ni241       O246   1.891       .  S
C242        O252   1.278       .  A
C242        C763   1.496       .  S
O243       Ni259   1.917       .  S
O243        C249   1.272       .  A
O244        C249   1.275       .  A
C245        C690   1.490       .  S
O246        C248   1.266       .  A
O247       Ni258   1.934       .  S
C248        O254   1.273       .  A
C248        C750   1.485       .  S
C249        C653   1.477       .  S
H250        O251   0.966       .  S
O251       Ni259   1.910       .  S
O251       Ni253   1.911       .  S
O251       Ni258   1.888       .  S
O252       Ni253   1.948       .  S
Ni253       O257   1.933       .  S
Ni253       O255   1.936       .  S
O254       Ni259   1.941       .  S
C256        O257   1.274       .  A
C256        C640   1.485       .  S
O261       Ni267   1.910       .  S
O261       C1290   1.262       .  A
O262       Ni285   1.906       .  S
O262       C1279   1.269       .  A
O263       Ni267   1.917       .  S
O263       Ni285   1.915       .  S
O263      Ni1287   1.927       .  S
O263       H1294   0.966       .  S
C264        O281   1.277       .  A
C264        O273   1.283       .  A
C264        C780   1.506       .  S
O265       Ni284   1.950       .  S
O265        C271   1.277   1_545  A
O266       Ni284   1.895       .  S
O266        C268   1.269       .  A
Ni267       O270   1.919       .  S
Ni267       O272   1.905       .  S
C268        O278   1.282       .  A
C268        C660   1.495       .  S
O269       Ni285   1.944       .  S
O269        C275   1.281       .  A
O270        C275   1.272       .  A
C271       O1270   1.268       .  A
C271       C1638   1.486       .  S
O272        C274   1.268       .  A
O273       Ni284   1.938       .  S
C274        O280   1.267       .  A
C274        C650   1.494       .  S
C275        C773   1.499       .  S
H276        O277   0.965   1_565  S
O277       Ni279   1.897       .  S
O277       Ni284   1.889       .  S
O277      Ni1293   1.907   1_545  S
O278       Ni279   1.958       .  S
Ni279       O283   1.914       .  S
Ni279       O281   1.928       .  S
Ni279      O1271   1.940   1_545  S
O280       Ni285   1.927       .  S
C282        O283   1.271       .  A
C282       O1269   1.266   1_545  A
C282        C620   1.464       .  S
Ni285      O1285   1.922       .  S
H286       O1271   0.965       .  S
O287       Ni293   1.919       .  S
O287        C308   1.266       .  A
O288       Ni311   1.901       .  S
O288        C297   1.267       .  A
O289       Ni293   1.907       .  S
O289       Ni311   1.904       .  S
O289       Ni305   1.911       .  S
O289        H312   0.967       .  S
C290        O307   1.278       .  A
C290        O299   1.284       .  A
C290       C2689   1.497   1_455  S
O291       Ni310   1.961       .  S
O291        C297   1.279       .  A
O292       Ni310   1.899       .  S
O292        C294   1.269       .  A
Ni293       O296   1.921       .  S
Ni293       O298   1.899       .  S
C294        O304   1.279       .  A
C294       C1711   1.493       .  S
O295       Ni311   1.909       .  S
O295        C301   1.270       .  A
O296        C301   1.276       .  A
C297        C633   1.493       .  S
O298        C300   1.267       .  A
O299       Ni310   1.937       .  S
C300        O306   1.272       .  A
C300        C710   1.491       .  S
C301        C680   1.481       .  S
H302        O303   0.966       .  S
O303       Ni311   1.907       .  S
O303       Ni305   1.910       .  S
O303       Ni310   1.896       .  S
O304       Ni305   1.949       .  S
Ni305       O309   1.929       .  S
Ni305       O307   1.926       .  S
O306       Ni311   1.939       .  S
C308        O309   1.273       .  A
C308        C863   1.478       .  S
O313       Ni319   1.902       .  S
O313        C334   1.262       .  A
O314       Ni337   1.890       .  S
O314        C323   1.265       .  A
O315       Ni319   1.905       .  S
O315       Ni337   1.893       .  S
O315       Ni331   1.925       .  S
O315        H338   0.967       .  S
C316        O333   1.282       .  A
C316        O325   1.285       .  A
C316       C2586   1.500       .  S
O317       Ni336   1.956       .  S
O317        C323   1.279       .  A
O318       Ni336   1.906       .  S
O318        C320   1.269       .  A
Ni319       O322   1.918       .  S
Ni319       O324   1.913       .  S
C320        O330   1.287       .  A
C320        C590   1.514       .  S
O321       Ni337   1.927       .  S
O321        C327   1.277       .  A
O322        C327   1.277       .  A
C323        C610   1.478       .  S
O324        C326   1.268       .  A
O325       Ni336   1.938       .  S
C326        O332   1.275       .  A
C326        C603   1.503       .  S
C327        C580   1.488       .  S
H328        O329   0.966       .  S
O329       Ni337   1.912       .  S
O329       Ni331   1.908       .  S
O329       Ni336   1.892       .  S
O330       Ni331   1.979       .  S
Ni331       O335   1.935       .  S
Ni331       O333   1.935       .  S
O332       Ni337   1.955       .  S
C334        O335   1.275       .  A
C334        C803   1.473       .  S
O339       Ni345   1.907       .  S
O339        C360   1.262       .  A
O340       Ni363   1.903       .  S
O340        C349   1.268       .  A
O341       Ni345   1.907       .  S
O341       Ni363   1.908       .  S
O341       Ni357   1.925       .  S
O341        H364   0.967       .  S
C342        O359   1.280       .  A
C342        O351   1.282       .  A
C342        C540   1.500       .  S
O343       Ni362   1.941       .  S
O343        C349   1.272       .  A
O344       Ni362   1.885       .  S
O344        C346   1.266       .  A
Ni345       O348   1.922       .  S
Ni345       O350   1.884       .  S
C346        O356   1.281       .  A
C346        C560   1.489       .  S
O347       Ni363   1.914       .  S
O347        C353   1.269       .  A
O348        C353   1.275       .  A
C349        C613   1.485       .  S
O350        C352   1.264       .  A
O351       Ni362   1.934       .  S
C352        O358   1.274       .  A
C352        C553   1.472       .  S
C353        C530   1.493       .  S
H354        O355   0.961       .  S
O355       Ni363   1.911       .  S
O355       Ni357   1.910       .  S
O355       Ni362   1.895       .  S
O356       Ni357   1.956       .  S
Ni357       O361   1.933       .  S
Ni357       O359   1.930       .  S
O358       Ni363   1.944       .  S
C360        O361   1.274       .  A
C360        C643   1.475       .  S
O365       Ni371   1.900       .  S
O365        C386   1.259       .  A
O366       Ni389   1.895       .  S
O366        C375   1.267       .  A
O367       Ni371   1.897       .  S
O367       Ni389   1.896       .  S
O367       Ni383   1.922       .  S
O367        H390   0.971       .  S
C368        O385   1.282       .  A
C368        O377   1.283       .  A
C368        C503   1.481       .  S
O369       Ni388   1.944       .  S
O369        C375   1.275       .  A
O370       Ni388   1.897       .  S
O370        C372   1.268       .  A
Ni371       O374   1.914       .  S
Ni371       O376   1.891       .  S
C372        O382   1.275       .  A
C372       C1581   1.489   1_545  S
O373       Ni389   1.924       .  S
O373        C379   1.278       .  A
O374        C379   1.277       .  A
C375        C520   1.473       .  S
O376        C378   1.265       .  A
O377       Ni388   1.930       .  S
C378        O384   1.270       .  A
C378        C583   1.488       .  S
C379        C513   1.476       .  S
H380        O381   0.965       .  S
O381       Ni389   1.907       .  S
O381       Ni383   1.895       .  S
O381       Ni388   1.882       .  S
O382       Ni383   1.940       .  S
Ni383       O387   1.922       .  S
Ni383       O385   1.931       .  S
O384       Ni389   1.934       .  S
C386        O387   1.268       .  A
C386        C833   1.468       .  S
O391       Ni397   1.887       .  S
O391        C412   1.255       .  A
O392       Ni415   1.909       .  S
O392        C401   1.268       .  A
O393       Ni397   1.896       .  S
O393       Ni415   1.887       .  S
O393      Ni1417   1.919   1_545  S
O393        H416   0.966       .  S
C394        O411   1.277       .  A
C394        O403   1.285       .  A
C394        C563   1.487       .  S
O395       Ni414   1.955       .  S
O395       C1409   1.280       .  A
O396       Ni414   1.908       .  S
O396        C398   1.271       .  A
Ni397       O400   1.908       .  S
Ni397       O402   1.895       .  S
C398        O408   1.275       .  A
C398        C480   1.489       .  S
O399       Ni415   1.934       .  S
O399        C405   1.284       .  A
O400        C405   1.276       .  A
C401       O1403   1.277       .  A
C401        C523   1.495       .  S
O402        C404   1.265       .  A
O403       Ni414   1.942       .  S
C404        O410   1.265       .  A
C404        C493   1.465       .  S
C405        C550   1.478       .  S
H406       O1415   0.966       .  S
O407       Ni409   1.904       .  S
O407       Ni414   1.884       .  S
O407      Ni1423   1.916       .  S
O407       H1414   0.966       .  S
O408       Ni409   1.934       .  S
Ni409       O413   1.928       .  S
Ni409       O411   1.922       .  S
Ni409      O1401   1.918       .  S
O410       Ni415   1.914       .  S
C412       O1421   1.266   1_545  A
C412        C623   1.467       .  S
O413       C1420   1.268       .  A
Ni415      O1415   1.915       .  S
O417       Ni423   1.898       .  S
O417       C2454   1.259       .  A
O418       Ni441   1.904       .  S
O418        C427   1.266       .  A
O419       Ni423   1.898       .  S
O419       Ni441   1.897       .  S
O419      Ni2451   1.919       .  S
O419       H2458   0.967       .  S
C420        O437   1.284       .  A
C420        O429   1.286       .  A
C420        C483   1.491       .  S
O421       Ni440   1.962       .  S
O421       C2443   1.280       .  A
O422       Ni440   1.906       .  S
O422        C424   1.269       .  A
Ni423       O426   1.911       .  S
Ni423       O428   1.899       .  S
C424        O434   1.279       .  A
C424        C543   1.499       .  S
O425       Ni441   1.915       .  S
O425        C431   1.275       .  A
O426        C431   1.276       .  A
C427       O2437   1.279       .  A
C427        C473   1.520       .  S
O428        C430   1.266       .  A
O429       Ni440   1.940       .  S
C430        O436   1.272       .  A
C430        C533   1.493       .  S
C431        C490   1.461       .  S
H432        O433   0.966       .  S
O433       Ni435   1.903       .  S
O433       Ni440   1.882       .  S
O433      Ni2457   1.895   1_455  S
O434       Ni435   1.952       .  S
Ni435       O439   1.942       .  S
Ni435       O437   1.931       .  S
Ni435      O2435   1.920       .  S
O436       Ni441   1.944       .  S
C438        O439   1.274       .  A
C438       O2433   1.257   1_455  A
C438        C743   1.474       .  S
Ni441      O2449   1.894       .  S
H442       O2435   0.967       .  S
O443       Ni449   1.901       .  S
O443        C464   1.262       .  A
O444       Ni467   1.887       .  S
O444        C453   1.263       .  A
O445       Ni449   1.919       .  S
O445       Ni467   1.923       .  S
O445       Ni461   1.942       .  S
O445        H468   0.977       .  S
C446        O463   1.281       .  A
C446        O455   1.285       .  A
C446       C1601   1.513   1_545  S
O447       Ni466   1.961       .  S
O447        C453   1.278       .  A
O448       Ni466   1.897       .  S
O448        C450   1.268       .  A
Ni449       O452   1.914       .  S
Ni449       O454   1.890       .  S
C450        O460   1.280       .  A
C450       C2516   1.488       .  S
O451       Ni467   1.937       .  S
O451        C457   1.274       .  A
O452        C457   1.268       .  A
C453        C470   1.486       .  S
O454        C456   1.266       .  A
O455       Ni466   1.947       .  S
C456        O462   1.273       .  A
C456        C510   1.467       .  S
C457        C600   1.499       .  S
H458        O459   0.970       .  S
O459       Ni467   1.906       .  S
O459       Ni461   1.899       .  S
O459       Ni466   1.898       .  S
O460       Ni461   1.954       .  S
Ni461       O465   1.924       .  S
Ni461       O463   1.937       .  S
O462       Ni467   1.936       .  S
C464        O465   1.273       .  A
C464        C953   1.471       .  S
C469        C470   1.410       .  A
C469       C2490   1.418       .  A
C469      Br2492   1.933       .  S
C470        C471   1.401       .  A
C471        C472   1.409       .  A
C471       Br478   1.938       .  S
C472        C473   1.428       .  A
C472       Br477   1.919       .  S
C473       C2490   1.427       .  A
C474       C2485   1.419       .  A
C474       C2489   1.428   1_455  A
C474       Br475   1.934       .  S
Br476      C2485   1.934       .  S
C479        C480   1.411       .  A
C479        C484   1.410       .  A
C479       Br486   1.930       .  S
C480        C481   1.417       .  A
C481        C482   1.411       .  A
C481       Br488   1.931       .  S
C482        C483   1.411       .  A
C482       Br487   1.924       .  S
C483        C484   1.413       .  A
C484       Br485   1.931       .  S
C489        C490   1.405       .  A
C489        C494   1.405       .  A
C489       Br496   1.928       .  S
C490        C491   1.405       .  A
C491        C492   1.398       .  A
C491       Br498   1.926       .  S
C492        C493   1.410       .  A
C492       Br497   1.930       .  S
C493        C494   1.410       .  A
C494       Br495   1.928       .  S
C499        C500   1.418       .  A
C499        C504   1.402       .  A
C499      Br2522   1.930   1_455  S
C500       C2466   1.492   1_455  S
C500        C501   1.412       .  A
C501        C502   1.419       .  A
C501       Br508   1.924       .  S
C502        C503   1.413       .  A
C502       Br507   1.927       .  S
C503        C504   1.405       .  A
C504       Br505   1.935       .  S
Br506      C2515   1.930       .  S
C509        C510   1.406       .  A
C509        C514   1.395       .  A
C509       Br516   1.935       .  S
C510        C511   1.410       .  A
C511        C512   1.413       .  A
C511       Br518   1.926       .  S
C512        C513   1.412       .  A
C512       Br517   1.926       .  S
C513        C514   1.413       .  A
C514       Br515   1.931       .  S
C519        C520   1.402       .  A
C519        C524   1.407       .  A
C519       Br526   1.935       .  S
C520        C521   1.408       .  A
C521        C522   1.410       .  A
C521       Br528   1.929       .  S
C522        C523   1.417       .  A
C522       Br527   1.934   1_545  S
C523        C524   1.420       .  A
C524       Br525   1.919       .  S
C529        C530   1.410       .  A
C529        C534   1.406       .  A
C529       Br536   1.932       .  S
C530        C531   1.422       .  A
C531        C532   1.413       .  A
C531       Br538   1.931       .  S
C532        C533   1.409       .  A
C532       Br537   1.927       .  S
C533        C534   1.412       .  A
C534       Br535   1.925       .  S
C539        C540   1.416       .  A
C539        C544   1.413       .  A
C539       Br546   1.932       .  S
C540        C541   1.420       .  A
C541        C542   1.413       .  A
C541       Br548   1.933       .  S
C542        C543   1.410       .  A
C542       Br547   1.926       .  S
C543        C544   1.413       .  A
C544       Br545   1.929       .  S
C549        C550   1.411       .  A
C549        C554   1.414       .  A
C549       Br556   1.929       .  S
C550        C551   1.416       .  A
C551        C552   1.397       .  A
C551       Br558   1.936       .  S
C552        C553   1.407       .  A
C552       Br557   1.938       .  S
C553        C554   1.411       .  A
C554       Br555   1.925       .  S
C559        C560   1.412       .  A
C559        C564   1.419       .  A
C559       Br566   1.928       .  S
C560        C561   1.418       .  A
C561        C562   1.401       .  A
C561       Br568   1.937       .  S
C562        C563   1.408       .  A
C562       Br567   1.936       .  S
C563        C564   1.417       .  A
C564       Br565   1.928       .  S
C569        C570   1.415       .  A
C569        C574   1.409       .  A
C569       Br576   1.933       .  S
C570       C2332   1.501   1_455  S
C570        C571   1.416       .  A
C571        C572   1.419       .  A
C571      Br2594   1.926       .  S
C572        C573   1.420       .  A
C572      Br1585   1.931       .  S
C573       C1380   1.500       .  S
C573        C574   1.412       .  A
C574       Br575   1.930       .  S
Br577      C1580   1.930   1_545  S
Br578      C2587   1.926       .  S
C579        C580   1.413       .  A
C579        C584   1.410       .  A
C579       Br586   1.926       .  S
C580        C581   1.411       .  A
C581        C582   1.405       .  A
C581       Br588   1.933       .  S
C582        C583   1.414       .  A
C582       Br587   1.933       .  S
C583        C584   1.416       .  A
C584       Br585   1.932       .  S
C589        C590   1.413       .  A
C589        C594   1.424       .  A
C589       Br596   1.924       .  S
C590        C591   1.415       .  A
C591        C592   1.417       .  A
C591       Br598   1.930       .  S
C592        C593   1.417       .  A
C592       Br597   1.932       .  S
C593       C1454   1.519       .  S
C593        C594   1.426       .  A
C594      Br1603   1.933       .  S
Br595      C1602   1.932   1_545  S
C599        C600   1.416       .  A
C599        C604   1.419       .  A
C599       Br606   1.931       .  S
C600        C601   1.412       .  A
C601        C602   1.413       .  A
C601       Br608   1.929       .  S
C602        C603   1.412       .  A
C602       Br607   1.929       .  S
C603        C604   1.414       .  A
C604       Br605   1.919       .  S
C609        C610   1.404       .  A
C609        C614   1.407       .  A
C609       Br616   1.929       .  S
C610        C611   1.412       .  A
C611        C612   1.410       .  A
C611       Br618   1.926       .  S
C612        C613   1.409       .  A
C612       Br617   1.929       .  S
C613        C614   1.414       .  A
C614       Br615   1.922       .  S
C619        C620   1.407       .  A
C619        C624   1.404   1_554  A
C619       Br626   1.932       .  S
C620        C621   1.407       .  A
C621        C622   1.405   1_554  A
C621       Br628   1.925       .  S
C622        C623   1.409       .  A
C622       Br627   1.931       .  S
C623        C624   1.411       .  A
C624       Br625   1.931       .  S
C629        C630   1.407       .  A
C629        C634   1.412       .  A
C629      Br1644   1.928       .  S
C630       C1279   1.492       .  S
C630        C631   1.414       .  A
C631        C632   1.414       .  A
C631       Br638   1.921       .  S
C632        C633   1.409       .  A
C632       Br637   1.929       .  S
C633        C634   1.415       .  A
C634       Br635   1.923       .  S
Br636      C1637   1.929   1_545  S
C639        C640   1.417       .  A
C639        C644   1.411   1_554  A
C639       Br646   1.928       .  S
C640        C641   1.412       .  A
C641        C642   1.408   1_554  A
C641       Br648   1.933       .  S
C642        C643   1.410       .  A
C642       Br647   1.932       .  S
C643        C644   1.406       .  A
C644       Br645   1.930       .  S
C649        C650   1.422       .  A
C649        C654   1.412       .  A
C649       Br656   1.935       .  S
C650        C651   1.415       .  A
C651        C652   1.403       .  A
C651       Br658   1.933       .  S
C652        C653   1.407       .  A
C652       Br657   1.933       .  S
C653        C654   1.410       .  A
C654       Br655   1.928       .  S
C659        C660   1.418       .  A
C659        C664   1.402       .  A
C659       Br666   1.933       .  S
C660        C661   1.413       .  A
C661        C662   1.421       .  A
C661       Br668   1.926       .  S
C662        C663   1.416       .  A
C662       Br667   1.926       .  S
C663        C664   1.409       .  A
C664       Br665   1.936       .  S
C669        C670   1.413       .  A
C669        C674   1.409       .  A
C669       Br676   1.930       .  S
C670        C671   1.410       .  A
C671        C672   1.415       .  A
C671       Br678   1.928       .  S
C672        C673   1.421       .  A
C672      Br2693   1.926       .  S
C673       C2306   1.500       .  S
C673        C674   1.412       .  A
C674       Br675   1.931       .  S
Br677      C2688   1.927   1_455  S
C679        C680   1.416       .  A
C679        C684   1.413       .  A
C679       Br686   1.928       .  S
C680        C681   1.408       .  A
C681        C682   1.400       .  A
C681       Br688   1.933       .  S
C682        C683   1.410       .  A
C682       Br687   1.925       .  S
C683        C684   1.411       .  A
C684       Br685   1.926       .  S
C689        C690   1.415       .  A
C689        C694   1.414       .  A
C689       Br696   1.925       .  S
C690        C691   1.408       .  A
C691        C692   1.412       .  A
C691       Br698   1.928       .  S
C692        C693   1.413       .  A
C692       Br697   1.926       .  S
C693        C694   1.407       .  A
C694       Br695   1.928       .  S
C699        C700   1.414       .  A
C699        C704   1.410       .  A
C699       Br706   1.933       .  S
C700        C701   1.417       .  A
C701        C702   1.416       .  A
C701       Br708   1.925       .  S
C702        C703   1.414       .  A
C702      Br1715   1.927       .  S
C703       C1302   1.496   1_545  S
C703        C704   1.414       .  A
C704       Br705   1.933       .  S
Br707      C1710   1.928       .  S
C709        C710   1.416       .  A
C709        C714   1.413       .  A
C709       Br716   1.927       .  S
C710        C711   1.414       .  A
C711        C712   1.403       .  A
C711       Br718   1.930       .  S
C712        C713   1.406       .  A
C712       Br717   1.931       .  S
C713        C714   1.412       .  A
C714       Br715   1.928       .  S
C719        C720   1.421       .  A
C719        C724   1.416       .  A
C719       Br726   1.928       .  S
C720       C1220   1.504   1_545  S
C720        C721   1.420       .  A
C721        C722   1.409       .  A
C721       Br728   1.935       .  S
C722        C723   1.411       .  A
C722      Br2743   1.934       .  S
C723       C2206   1.494       .  S
C723        C724   1.410       .  A
C724       Br725   1.927       .  S
Br727      C2738   1.935       .  S
C729        C730   1.409       .  A
C729        C734   1.412       .  A
C729       Br736   1.927       .  S
C730        C731   1.411       .  A
C731        C732   1.403       .  A
C731       Br738   1.931       .  S
C732        C733   1.411       .  A
C732       Br737   1.933       .  S
C733        C734   1.418       .  A
C734       Br735   1.928       .  S
C739        C740   1.409   1_655  A
C739        C744   1.411   1_654  A
C739       Br746   1.929       .  S
C740       C2757   1.413       .  A
C741        C742   1.409   1_554  A
C741       C2756   1.408       .  A
C741       Br748   1.928       .  S
C742       C2759   1.411       .  A
C742       Br747   1.927       .  S
C743        C744   1.411       .  A
C743       C2758   1.407       .  A
C744       Br745   1.930       .  S
C749        C750   1.406       .  A
C749        C754   1.411       .  A
C749       Br756   1.928       .  S
C750        C751   1.410       .  A
C751        C752   1.403       .  A
C751       Br758   1.928       .  S
C752        C753   1.410       .  A
C752       Br757   1.931       .  S
C753        C754   1.424       .  A
C754       Br755   1.934       .  S
C759        C760   1.417       .  A
C759        C764   1.413       .  A
C759       Br766   1.930       .  S
C760        C761   1.418       .  A
C761        C762   1.419       .  A
C761       Br768   1.926       .  S
C762        C763   1.415       .  A
C762       Br767   1.931       .  S
C763        C764   1.409       .  A
C764       Br765   1.930       .  S
C769        C770   1.412       .  A
C769        C774   1.422       .  A
C769       Br776   1.926       .  S
C770        C771   1.405       .  A
C771        C772   1.400       .  A
C771       Br778   1.936       .  S
C772        C773   1.420       .  A
C772       Br777   1.927       .  S
C773        C774   1.416       .  A
C774       Br775   1.922       .  S
C779        C780   1.424       .  A
C779        C784   1.418       .  A
C779       Br786   1.932       .  S
C780        C781   1.414       .  A
C781        C782   1.410       .  A
C781       Br788   1.933       .  S
C782        C783   1.415       .  A
C782       Br787   1.932       .  S
C783        C784   1.412       .  A
C784       Br785   1.928       .  S
C789        C790   1.413       .  A
C789        C794   1.412       .  A
C789       Br796   1.925       .  S
C790        C791   1.408       .  A
C791        C792   1.412       .  A
C791       Br798   1.928       .  S
C792        C793   1.415       .  A
C792       Br797   1.924       .  S
C793        C794   1.407       .  A
C794      Br2811   1.927   1_455  S
Br795      C2810   1.926       .  S
C799        C800   1.411       .  A
C799        C804   1.412       .  A
C799       Br806   1.929       .  S
C800        C801   1.415       .  A
C801        C802   1.408       .  A
C801       Br808   1.926       .  S
C802        C803   1.405       .  A
C802       Br807   1.931       .  S
C803        C804   1.411       .  A
C804       Br805   1.930       .  S
C809        C810   1.408       .  A
C809        C814   1.413       .  A
C809       Br816   1.929       .  S
C810        C811   1.412       .  A
C811        C812   1.413       .  A
C811       Br818   1.929       .  S
C812        C813   1.411       .  A
C812       Br817   1.929       .  S
C813        C814   1.414       .  A
C814       Br815   1.924       .  S
C819        C820   1.408       .  A
C819        C824   1.414       .  A
C819       Br826   1.938       .  S
C820        C821   1.413       .  A
C821        C822   1.418       .  A
C821       Br828   1.920       .  S
C822        C823   1.423       .  A
C822       Br827   1.937       .  S
C823        C824   1.430       .  A
C824       Br825   1.929       .  S
C829        C830   1.406       .  A
C829        C834   1.405       .  A
C829       Br836   1.928       .  S
C830        C831   1.408       .  A
C831        C832   1.405       .  A
C831       Br838   1.931       .  S
C832        C833   1.410       .  A
C832       Br837   1.931       .  S
C833        C834   1.410       .  A
C834       Br835   1.931       .  S
C839        C840   1.410       .  A
C839        C844   1.405       .  A
C839       Br846   1.925       .  S
C840       C2160   1.494   1_455  S
C840        C841   1.411       .  A
C841        C842   1.414       .  A
C841      Br2864   1.927   1_455  S
C842        C843   1.415       .  A
C842       Br847   1.927       .  S
C843       C1101   1.486       .  S
C843        C844   1.412       .  A
C844       Br845   1.933       .  S
Br848      C2857   1.927       .  S
C849        C850   1.413       .  A
C849        C854   1.422       .  A
C849       Br856   1.923       .  S
C850        C851   1.414       .  A
C851        C852   1.414       .  A
C851       Br858   1.930       .  S
C852        C853   1.416       .  A
C852       Br857   1.932       .  S
C853        C854   1.423       .  A
C854       Br855   1.932       .  S
C859        C860   1.410       .  A
C859        C864   1.409       .  A
C859       Br866   1.929       .  S
C860        C861   1.411       .  A
C861        C862   1.411       .  A
C861       Br868   1.930       .  S
C862        C863   1.410       .  A
C862       Br867   1.929       .  S
C863        C864   1.409       .  A
C864       Br865   1.927       .  S
C869        C870   1.419       .  A
C869       C2890   1.416       .  A
C869       Br876   1.927   1_655  S
C870       C2887   1.418       .  A
C871        C872   1.403       .  A
C871       C2886   1.418       .  A
C871       Br878   1.932       .  S
C872        C873   1.407       .  A
C872       Br877   1.935       .  S
C873        C874   1.412       .  A
C874       C2885   1.416       .  A
C874       Br875   1.929       .  S
C879        C880   1.417       .  A
C879        C884   1.414       .  A
C879       Br886   1.930       .  S
C880        C881   1.416       .  A
C881        C882   1.407       .  A
C881       Br888   1.935       .  S
C882        C883   1.413       .  A
C882       Br887   1.935       .  S
C883        C884   1.415       .  A
C884       Br885   1.929       .  S
C889        C894   1.409       .  A
C889       C1898   1.415   1_545  A
C889       Br896   1.923       .  S
C890        C891   1.411       .  A
C890       C1897   1.416       .  A
C891       C1900   1.412       .  A
C891       Br898   1.928       .  S
C892        C893   1.412   1_565  A
C892       C1899   1.410       .  A
C892      Br1905   1.927       .  S
C893        C894   1.405       .  A
C894       Br895   1.929       .  S
Br897      C1900   1.927       .  S
C899        C900   1.409       .  A
C899        C904   1.409       .  A
C899       Br906   1.931       .  S
C900        C901   1.408       .  A
C901        C902   1.411       .  A
C901       Br908   1.927       .  S
C902        C903   1.411       .  A
C902       Br907   1.927       .  S
C903        C904   1.410       .  A
C904       Br905   1.930       .  S
C909        C910   1.411       .  A
C909        C914   1.404       .  A
C909       Br916   1.937       .  S
C910        C911   1.414       .  A
C911        C912   1.410       .  A
C911      Br1926   1.932       .  S
C912        C913   1.419       .  A
C912       Br917   1.931       .  S
C913        C914   1.417       .  A
C914       Br915   1.934       .  S
Br918      C1919   1.931       .  S
C919        C920   1.416       .  A
C919        C924   1.422       .  A
C919       Br926   1.926       .  S
C920        C921   1.422       .  A
C921        C922   1.399       .  A
C921       Br928   1.938       .  S
C922        C923   1.406       .  A
C922       Br927   1.937       .  S
C923        C924   1.414       .  A
C924       Br925   1.927       .  S
C929        C930   1.414       .  A
C929        C934   1.414       .  A
C929       Br936   1.933       .  S
C930        C931   1.411       .  A
C931        C932   1.417       .  A
C931       Br938   1.926       .  S
C932        C933   1.410       .  A
C932       Br937   1.916       .  S
C933        C934   1.412       .  A
C934       Br935   1.914       .  S
C939        C940   1.411       .  A
C939        C944   1.406       .  A
C939       Br946   1.923       .  S
C940       C1126   1.491   1_545  S
C940        C941   1.411       .  A
C941        C942   1.414       .  A
C941      Br1956   1.918   1_545  S
C942        C943   1.415       .  A
C942      Br2963   1.926       .  S
C943       C2057   1.488       .  S
C943        C944   1.409       .  A
C944       Br945   1.932       .  S
Br947      C2958   1.924       .  S
Br948      C1949   1.924       .  S
C949        C950   1.406       .  A
C949        C954   1.411       .  A
C949       Br956   1.927       .  S
C950        C951   1.414       .  A
C951        C952   1.407       .  A
C951       Br958   1.928       .  S
C952        C953   1.405       .  A
C952       Br957   1.932       .  S
C953        C954   1.413       .  A
C954       Br955   1.930       .  S
C959        C960   1.415       .  A
C959        C964   1.413       .  A
C959       Br966   1.921       .  S
C960        C961   1.415       .  A
C961        C962   1.411       .  A
C961       Br968   1.932       .  S
C962        C963   1.412       .  A
C962       Br967   1.932       .  S
C963        C964   1.413       .  A
C964       Br965   1.933       .  S
C969        C974   1.412       .  A
C969       C1978   1.414       .  A
C969       Br976   1.928       .  S
C970        C971   1.405   1_545  A
C970       C1977   1.413   1_545  A
C971       C1980   1.398       .  A
C971       Br978   1.911   1_565  S
C972        C973   1.407       .  A
C972       C1979   1.403       .  A
C972       Br977   1.921       .  S
C973        C974   1.407       .  A
C974       Br975   1.926       .  S
C979        C980   1.414       .  A
C979        C984   1.398       .  A
C979       Br986   1.935       .  S
C980        C981   1.414       .  A
C981        C982   1.423       .  A
C981       Br988   1.926       .  S
C982        C983   1.415       .  A
C982       Br987   1.926       .  S
C983        C984   1.409       .  A
C984       Br985   1.933       .  S
C989        C990   1.404       .  A
C989        C994   1.400       .  A
C989       Br996   1.930       .  S
C990        C991   1.412       .  A
C991        C992   1.403       .  A
C991      Br3014   1.921       .  S
C992        C993   1.409       .  A
C992       Br997   1.930       .  S
C993        C994   1.413       .  A
C994       Br995   1.928       .  S
Br998      C3007   1.922       .  S
C999       C1004   1.410       .  A
C999       C3016   1.415   1_455  A
C999      Br1006   1.925       .  S
C1000      C1001   1.407       .  A
C1000      C3015   1.416       .  A
C1001      C3018   1.409       .  A
C1001     Br1008   1.928       .  S
C1002      C1003   1.412   1_655  A
C1002      C3017   1.408       .  A
C1002     Br3023   1.924       .  S
C1003      C1004   1.406       .  A
C1004     Br1005   1.929       .  S
Br1007     C3018   1.925       .  S
O1009     Ni1015   1.902       .  S
O1009      C1030   1.260       .  A
O1010     Ni1033   1.909       .  S
O1010      C1019   1.269       .  A
O1011     Ni1015   1.905       .  S
O1011     Ni1033   1.897       .  S
O1011     Ni1027   1.923       .  S
O1011      H1034   0.966       .  S
C1012      O1029   1.283       .  A
C1012      O1021   1.280       .  A
C1012      C1991   1.493       .  S
O1013     Ni1032   1.951       .  S
O1013      C1019   1.275       .  A
O1014     Ni1032   1.904       .  S
O1014      C1016   1.270       .  A
Ni1015     O3034   1.922       .  S
Ni1015     O1020   1.892       .  S
C1016      O1026   1.277       .  A
C1016      C1971   1.491       .  S
O1017     Ni3049   1.921       .  S
O1017      C1023   1.275   1_655  A
O1018     Ni3031   1.922       .  S
O1018      C1023   1.278   1_655  A
C1019      C2008   1.493       .  S
O1020      C1022   1.264       .  A
O1021     Ni1032   1.931       .  S
C1022      O1028   1.276       .  A
C1022      C1978   1.484       .  S
C1023      C1998   1.488       .  S
H1024      O1025   0.966       .  S
O1025     Ni1033   1.920       .  S
O1025     Ni1027   1.920       .  S
O1025     Ni1032   1.896       .  S
O1026     Ni1027   1.943       .  S
Ni1027     O1031   1.934       .  S
Ni1027     O1029   1.947       .  S
O1028     Ni1033   1.948       .  S
C1030      O1031   1.273       .  A
C1030      C1958   1.475       .  S
Ni1033     O3033   1.923       .  S
O1035     Ni1041   1.903       .  S
O1035      C1056   1.261       .  A
O1036     Ni1059   1.906       .  S
O1036      C1045   1.272       .  A
O1037     Ni1041   1.906       .  S
O1037     Ni1059   1.903       .  S
O1037     Ni1053   1.928       .  S
O1037      H1060   0.966       .  S
C1038      O1055   1.279       .  A
C1038      O1047   1.287       .  A
C1038      C1938   1.505       .  S
O1039     Ni1058   1.956       .  S
O1039      C1045   1.279       .  A
O1040     Ni1058   1.891       .  S
O1040      C1042   1.268       .  A
Ni1041     O1044   1.910   1_455  S
Ni1041     O1046   1.893       .  S
C1042      O1052   1.282       .  A
C1042      C1928   1.488       .  S
O1043     Ni1059   1.941       .  S
O1043      C1049   1.278   1_455  A
O1044      C1049   1.273       .  A
C1045      C2011   1.494       .  S
O1046      C1048   1.265       .  A
O1047     Ni1058   1.954       .  S
C1048      O1054   1.271       .  A
C1048      C1921   1.480       .  S
C1049      C3967   1.500       .  S
H1050      O1051   0.966       .  S
O1051     Ni1059   1.921       .  S
O1051     Ni1053   1.903       .  S
O1051     Ni1058   1.884       .  S
O1052     Ni1053   1.952       .  S
Ni1053     O1057   1.924       .  S
Ni1053     O1055   1.932       .  S
O1054     Ni1059   1.931       .  S
C1056      O1057   1.271       .  A
C1056      C1908   1.464       .  S
O1061     Ni1067   1.906       .  S
O1061      C1082   1.262       .  A
O1062     Ni1085   1.904       .  S
O1062      C1071   1.269       .  A
O1063     Ni1067   1.903       .  S
O1063     Ni1085   1.894       .  S
O1063     Ni1079   1.918       .  S
O1063      H1086   0.965       .  S
C1064      O1081   1.278       .  A
C1064      O1073   1.282       .  A
C1064      C1931   1.480       .  S
O1065     Ni1084   1.949       .  S
O1065      C1071   1.276       .  A
O1066     Ni1084   1.899       .  S
O1066      C1068   1.269       .  A
Ni1067     O1072   1.889       .  S
C1068      O1078   1.280       .  A
C1068      C1888   1.497       .  S
O1069      C1075   1.270       .  A
O1070      C1075   1.277       .  A
C1071      C1898   1.487       .  S
O1072      C1074   1.265       .  A
O1073     Ni1084   1.931       .  S
C1074      O1080   1.274       .  A
C1074      C1878   1.494   1_455  S
C1075      C1918   1.475       .  S
H1076      O1077   0.969       .  S
O1077     Ni1085   1.912       .  S
O1077     Ni1079   1.909       .  S
O1077     Ni1084   1.890       .  S
O1078     Ni1079   1.953       .  S
Ni1079     O1083   1.928       .  S
Ni1079     O1081   1.926       .  S
O1080     Ni1085   1.949       .  S
C1082      O1083   1.272       .  A
C1082      C1868   1.477       .  S
O1087     Ni1093   1.898       .  S
O1087      C1108   1.262       .  A
O1088     Ni1111   1.899       .  S
O1088      C1097   1.266       .  A
O1089     Ni1093   1.921       .  S
O1089     Ni1111   1.919       .  S
O1089     Ni1105   1.937       .  S
O1089      H1112   0.969       .  S
C1090      O1107   1.283       .  A
C1090      O1099   1.284       .  A
C1090      C1861   1.509       .  S
O1091     Ni1110   1.956       .  S
O1091      C1097   1.277       .  A
O1092     Ni1110   1.901       .  S
O1092      C1094   1.270       .  A
Ni1093     O1096   1.904       .  S
Ni1093     O1098   1.892       .  S
C1094      O1104   1.279       .  A
C1094      C1988   1.492       .  S
O1095     Ni1111   1.924       .  S
O1095      C1101   1.269       .  A
O1096      C1101   1.266       .  A
C1097      C1901   1.486       .  S
O1098      C1100   1.266       .  A
O1099     Ni1110   1.940       .  S
C1100      O1106   1.275       .  A
C1100      C2001   1.494       .  S
H1102      O1103   0.966       .  S
O1103     Ni1111   1.903       .  S
O1103     Ni1105   1.901       .  S
O1103     Ni1110   1.891       .  S
O1104     Ni1105   1.952       .  S
Ni1105     O1109   1.923       .  S
Ni1105     O1107   1.941       .  S
O1106     Ni1111   1.941       .  S
C1108      O1109   1.272       .  A
C1108      C1838   1.464       .  S
O1113     Ni1119   1.906       .  S
O1113      C1134   1.261       .  A
O1114     Ni1137   1.897       .  S
O1114      C1123   1.267       .  A
O1115     Ni1119   1.909       .  S
O1115     Ni1137   1.904       .  S
O1115     Ni1131   1.923       .  S
O1115      H1138   0.966       .  S
C1116      O1133   1.281       .  A
C1116      O1125   1.287       .  A
C1116      C1891   1.502       .  S
O1117     Ni1136   1.973       .  S
O1117      C1123   1.283       .  A
O1118     Ni1136   1.920       .  S
O1118      C1120   1.273       .  A
Ni1119     O1122   1.913       .  S
Ni1119     O1124   1.900       .  S
C1120      O1130   1.281       .  A
C1120      C1941   1.507       .  S
O1121     Ni1137   1.928       .  S
O1121      C1127   1.276       .  A
O1122      C1127   1.276       .  A
C1123      C1828   1.513       .  S
O1124      C1126   1.266       .  A
O1125     Ni1136   1.948       .  S
C1126      O1132   1.274       .  A
C1127      C1881   1.486       .  S
H1128      O1129   0.966       .  S
O1129     Ni1137   1.906       .  S
O1129     Ni1131   1.915       .  S
O1129     Ni1136   1.896       .  S
O1130     Ni1131   1.962       .  S
Ni1131     O1135   1.937       .  S
Ni1131     O1133   1.933       .  S
O1132     Ni1137   1.950       .  S
C1134      O1135   1.274       .  A
C1134      C1818   1.479       .  S
O1139     Ni1145   1.900       .  S
O1139      C1160   1.260       .  A
O1140     Ni1163   1.906       .  S
O1140      C1149   1.268       .  A
O1141     Ni1145   1.904       .  S
O1141     Ni1163   1.903       .  S
O1141     Ni1157   1.921       .  S
O1141      H1164   0.967       .  S
C1142      O1159   1.282       .  A
C1142      O1151   1.288       .  A
C1142      C1968   1.499       .  S
O1143     Ni1162   1.970       .  S
O1143      C1149   1.282       .  A
O1144     Ni1162   1.908       .  S
O1144      C1146   1.271       .  A
Ni1145     O1148   1.913       .  S
Ni1145     O1150   1.902       .  S
C1146      O1156   1.282       .  A
C1146      C1858   1.505       .  S
O1147     Ni1163   1.921       .  S
O1147      C1153   1.277       .  A
O1148      C1153   1.275       .  A
C1149      C1831   1.530       .  S
O1150      C1152   1.267       .  A
O1151     Ni1162   1.947       .  S
C1152      O1158   1.274       .  A
C1152      C3864   1.500       .  S
C1153      C1981   1.468       .  S
H1154      O1155   0.966       .  S
O1155     Ni1163   1.901       .  S
O1155     Ni1157   1.906       .  S
O1155     Ni1162   1.883       .  S
O1156     Ni1157   1.962       .  S
Ni1157     O1161   1.940       .  S
Ni1157     O1159   1.931       .  S
O1158     Ni1163   1.950       .  S
C1160      O1161   1.274       .  A
C1160      C1808   1.474       .  S
O1165     Ni1171   1.898       .  S
O1165      C1186   1.258       .  A
O1166     Ni1189   1.890       .  S
O1166      C1175   1.264       .  A
O1167     Ni1171   1.897       .  S
O1167     Ni1189   1.892       .  S
O1167     Ni3199   1.923   1_455  S
O1167      H1190   0.967       .  S
C1168      O1185   1.287       .  A
C1168      O1177   1.285       .  A
C1168      C1768   1.497       .  S
O1169     Ni1188   1.963       .  S
O1169      C3191   1.280       .  A
O1170     Ni1188   1.902       .  S
O1170      C1172   1.269       .  A
Ni1171     O1174   1.914       .  S
Ni1171     O1176   1.903       .  S
C1172      O1182   1.284       .  A
C1172      C1791   1.508       .  S
O1173     Ni1189   1.917       .  S
O1173      C1179   1.273       .  A
O1174      C1179   1.277       .  A
C1175      O3185   1.282   1_455  A
C1175      C1801   1.487       .  S
O1176      C1178   1.266       .  A
O1177     Ni1188   1.938       .  S
C1178      O1184   1.272       .  A
C1178      C1778   1.492       .  S
C1179      C1761   1.483       .  S
H1180      O3197   0.966       .  S
O1181     Ni3205   1.901       .  S
O1181     Ni1183   1.905       .  S
O1181     Ni1188   1.885       .  S
O1181      H3196   0.966       .  S
O1182     Ni1183   1.965       .  S
Ni1183     O1187   1.951       .  S
Ni1183     O1185   1.941       .  S
Ni1183     O3183   1.927       .  S
O1184     Ni1189   1.943       .  S
C1186      O3203   1.279   1_455  A
C1186      C1748   1.480       .  S
O1187      C3202   1.280       .  A
Ni1189     O3197   1.900   1_455  S
O1191     Ni1197   1.904       .  S
O1191      C1212   1.259       .  A
O1192     Ni1215   1.912       .  S
O1192      C1201   1.273       .  A
O1193     Ni1197   1.908       .  S
O1193     Ni1215   1.902       .  S
O1193     Ni1209   1.925       .  S
O1193      H1216   0.967       .  S
C1194      O1211   1.278       .  A
C1194      O1203   1.284       .  A
C1194      C1708   1.503       .  S
O1195     Ni1214   1.957       .  S
O1195      C1201   1.281       .  A
O1196     Ni1214   1.904       .  S
O1196      C1198   1.270       .  A
Ni1197     O1200   1.921       .  S
Ni1197     O1202   1.897       .  S
C1198      O1208   1.279       .  A
C1198      C3747   1.498   1_455  S
O1199     Ni1215   1.932       .  S
O1199      C1205   1.278       .  A
O1200      C1205   1.275       .  A
C1201      C1798   1.496       .  S
O1202      C1204   1.268       .  A
O1203     Ni1214   1.943       .  S
C1204      O1210   1.271       .  A
C1204      C1738   1.494       .  S
C1205      C1721   1.481       .  S
H1206      O1207   0.965       .  S
O1207     Ni1215   1.916       .  S
O1207     Ni1209   1.902       .  S
O1207     Ni1214   1.887       .  S
O1208     Ni1209   1.950       .  S
Ni1209     O1213   1.927       .  S
Ni1209     O1211   1.924       .  S
O1210     Ni1215   1.938       .  S
C1212      O1213   1.269       .  A
C1212      C1911   1.474       .  S
O1217     Ni1223   1.904       .  S
O1217      C1238   1.262       .  A
O1218     Ni1241   1.895       .  S
O1218      C1227   1.266       .  A
O1219     Ni1223   1.908       .  S
O1219     Ni1241   1.900       .  S
O1219     Ni1235   1.927       .  S
O1219      H1242   0.967       .  S
C1220      O1237   1.285       .  A
C1220      O1229   1.283       .  A
O1221     Ni1240   1.957       .  S
O1221      C1227   1.279       .  A
O1222     Ni1240   1.898       .  S
O1222      C1224   1.268       .  A
Ni1223     O1226   1.919       .  S
Ni1223     O1228   1.896       .  S
C1224      O1234   1.278       .  A
C1224      C1678   1.499       .  S
O1225     Ni1241   1.919       .  S
O1225      C1231   1.272       .  A
O1226      C1231   1.275       .  A
C1227      C1701   1.485       .  S
O1228      C1230   1.266       .  A
O1229     Ni1240   1.933       .  S
C1230      O1236   1.273       .  A
C1230      C1691   1.494       .  S
C1231      C1741   1.490       .  S
H1232      O1233   0.966       .  S
O1233     Ni1241   1.904       .  S
O1233     Ni1235   1.902       .  S
O1233     Ni1240   1.891       .  S
O1234     Ni1235   1.949       .  S
Ni1235     O1239   1.936       .  S
Ni1235     O1237   1.941       .  S
O1236     Ni1241   1.941       .  S
C1238      O1239   1.274       .  A
C1238      C1821   1.472       .  S
O1243     Ni1249   1.896       .  S
O1243      C1264   1.260       .  A
O1244     Ni1267   1.902       .  S
O1244      C1253   1.268       .  A
O1245     Ni1249   1.907       .  S
O1245     Ni1267   1.895       .  S
O1245     Ni1261   1.927       .  S
O1245      H1268   0.967       .  S
C1246      O1263   1.284       .  A
C1246      O1255   1.284       .  A
C1246      C1671   1.496       .  S
O1247     Ni1266   1.957       .  S
O1247      C1253   1.278       .  A
O1248     Ni1266   1.901       .  S
O1248      C1250   1.269       .  A
Ni1249     O1252   1.915       .  S
Ni1249     O1254   1.895       .  S
C1250      O1260   1.280       .  A
C1250      C1771   1.492       .  S
O1251     Ni1267   1.914       .  S
O1251      C1257   1.272       .  A
O1252      C1257   1.275       .  A
C1253      C1698   1.492       .  S
O1254      C1256   1.266       .  A
O1255     Ni1266   1.937       .  S
C1256      O1262   1.270       .  A
C1256      C1758   1.482       .  S
C1257      C1661   1.480       .  S
H1258      O1259   0.966       .  S
O1259     Ni1267   1.913       .  S
O1259     Ni1261   1.910       .  S
O1259     Ni1266   1.886       .  S
O1260     Ni1261   1.949       .  S
Ni1261     O1265   1.934       .  S
Ni1261     O1263   1.942       .  S
O1262     Ni1267   1.934       .  S
C1264      O1265   1.274       .  A
C1264      C1648   1.471       .  S
O1269     Ni1275   1.902       .  S
O1270     Ni1293   1.901       .  S
O1271     Ni1275   1.920       .  S
O1271     Ni1293   1.910       .  S
C1272      O1289   1.277       .  A
C1272      O1281   1.288       .  A
C1272      C1788   1.515       .  S
O1273     Ni1292   1.958       .  S
O1273      C1279   1.280       .  A
O1274     Ni1292   1.898       .  S
O1274      C1276   1.270       .  A
Ni1275     O1278   1.923       .  S
Ni1275     O1280   1.897       .  S
C1276      O1286   1.288       .  A
C1276      C1668   1.506       .  S
O1277     Ni1293   1.921       .  S
O1277      C1283   1.267       .  A
O1278      C1283   1.267       .  A
O1280      C1282   1.270       .  A
O1281     Ni1292   1.954       .  S
C1282      O1288   1.277       .  A
C1282      C1658   1.493       .  S
C1283      C1781   1.483       .  S
H1284      O1285   0.965       .  S
O1285     Ni1287   1.902       .  S
O1285     Ni1292   1.880       .  S
O1286     Ni1287   1.973       .  S
Ni1287     O1291   1.926       .  S
Ni1287     O1289   1.928       .  S
O1288     Ni1293   1.947       .  S
C1290      O1291   1.271       .  A
C1290      C1628   1.470       .  S
O1295     Ni1301   1.911       .  S
O1295      C1316   1.262       .  A
O1296     Ni1319   1.894       .  S
O1296      C1305   1.266       .  A
O1297     Ni1301   1.903       .  S
O1297     Ni1319   1.900       .  S
O1297     Ni1313   1.912       .  S
O1297      H1320   0.966       .  S
C1298      O1315   1.276       .  A
C1298      O1307   1.282       .  A
C1298      C3697   1.503   1_455  S
O1299     Ni1318   1.951       .  S
O1299      C1305   1.277       .  A
O1300     Ni1318   1.904       .  S
O1300      C1302   1.268       .  A
Ni1301     O1304   1.933       .  S
Ni1301     O1306   1.888       .  S
C1302      O1312   1.278       .  A
O1303     Ni1319   1.914       .  S
O1303      C1309   1.271       .  A
O1304      C1309   1.279       .  A
C1305      C1641   1.481       .  S
O1306      C1308   1.261       .  A
O1307     Ni1318   1.935       .  S
C1308      O1314   1.277       .  A
C1308      C1718   1.477       .  S
C1309      C1688   1.492       .  S
H1310      O1311   0.966       .  S
O1311     Ni1319   1.910       .  S
O1311     Ni1313   1.906       .  S
O1311     Ni1318   1.902       .  S
O1312     Ni1313   1.948       .  S
Ni1313     O1317   1.920       .  S
Ni1313     O1315   1.923       .  S
O1314     Ni1319   1.955       .  S
C1316      O1317   1.270       .  A
C1316      C1871   1.465       .  S
O1321     Ni1327   1.905       .  S
O1321      C1342   1.262       .  A
O1322     Ni1345   1.895       .  S
O1322      C1331   1.268       .  A
O1323     Ni1327   1.904       .  S
O1323     Ni1345   1.896       .  S
O1323     Ni1339   1.916       .  S
O1323      H1346   0.967       .  S
C1324      O1341   1.279       .  A
C1324      O1333   1.282       .  A
C1324      C3594   1.495       .  S
O1325     Ni1344   1.946       .  S
O1325      C1331   1.276       .  A
O1326     Ni1344   1.901       .  S
O1326      C1328   1.268       .  A
Ni1327     O1330   1.917       .  S
Ni1327     O1332   1.903       .  S
C1328      O1338   1.285       .  A
C1328      C1598   1.507       .  S
O1329     Ni1345   1.920       .  S
O1329      C1335   1.275       .  A
O1330      C1335   1.277       .  A
C1331      C1618   1.476       .  S
O1332      C1334   1.266       .  A
O1333     Ni1344   1.928       .  S
C1334      O1340   1.275       .  A
C1334      C1611   1.498       .  S
C1335      C1588   1.483       .  S
H1336      O1337   0.966       .  S
O1337     Ni1345   1.906       .  S
O1337     Ni1339   1.905       .  S
O1337     Ni1344   1.893       .  S
O1338     Ni1339   1.971       .  S
Ni1339     O1343   1.937       .  S
Ni1339     O1341   1.923       .  S
O1340     Ni1345   1.954       .  S
C1342      O1343   1.275       .  A
C1342      C1811   1.483       .  S
O1347     Ni1353   1.904       .  S
O1347      C1368   1.263       .  A
O1348     Ni1371   1.897       .  S
O1348      C1357   1.266       .  A
O1349     Ni1353   1.910       .  S
O1349     Ni1371   1.910       .  S
O1349     Ni1365   1.924       .  S
O1349      H1372   0.967       .  S
C1350      O1367   1.278       .  A
C1350      O1359   1.282       .  A
C1350      C1548   1.506       .  S
O1351     Ni1370   1.942       .  S
O1351      C1357   1.273       .  A
O1352     Ni1370   1.885       .  S
O1352      C1354   1.265       .  A
Ni1353     O1356   1.918       .  S
Ni1353     O1358   1.891       .  S
C1354      O1364   1.281       .  A
C1354      C1568   1.486       .  S
O1355     Ni1371   1.920       .  S
O1355      C1361   1.270       .  A
O1356      C1361   1.272       .  A
C1357      C1621   1.479       .  S
O1358      C1360   1.265       .  A
O1359     Ni1370   1.937       .  S
C1360      O1366   1.275       .  A
C1360      C1561   1.473       .  S
C1361      C1538   1.494       .  S
H1362      O1363   0.962       .  S
O1363     Ni1371   1.912       .  S
O1363     Ni1365   1.904       .  S
O1363     Ni1370   1.898       .  S
O1364     Ni1365   1.956       .  S
Ni1365     O1369   1.924       .  S
Ni1365     O1367   1.927       .  S
O1366     Ni1371   1.946       .  S
C1368      O1369   1.273       .  A
C1368      C1651   1.472       .  S
O1373     Ni1379   1.904       .  S
O1373      C1394   1.260       .  A
O1374     Ni1397   1.900       .  S
O1374      C1383   1.267       .  A
O1375     Ni1379   1.906       .  S
O1375     Ni1397   1.900       .  S
O1375     Ni1391   1.932       .  S
O1375      H1398   0.971       .  S
C1376      O1393   1.283       .  A
C1376      O1385   1.284       .  A
C1376      C1511   1.480       .  S
O1377     Ni1396   1.957       .  S
O1377      C1383   1.280       .  A
O1378     Ni1396   1.906       .  S
O1378      C1380   1.271       .  A
Ni1379     O1382   1.921       .  S
Ni1379     O1384   1.889       .  S
C1380      O1390   1.276       .  A
O1381     Ni1397   1.925       .  S
O1381      C1387   1.277       .  A
O1382      C1387   1.277       .  A
C1383      C1528   1.490       .  S
O1384      C1386   1.265       .  A
O1385     Ni1396   1.931       .  S
C1386      O1392   1.269       .  A
C1386      C1591   1.484       .  S
C1387      C1521   1.481       .  S
H1388      O1389   0.966       .  S
O1389     Ni1397   1.905       .  S
O1389     Ni1391   1.898       .  S
O1389     Ni1396   1.882       .  S
O1390     Ni1391   1.943       .  S
Ni1391     O1395   1.922       .  S
Ni1391     O1393   1.933       .  S
O1392     Ni1397   1.928       .  S
C1394      O1395   1.268       .  A
C1394      C1841   1.469       .  S
O1399     Ni1405   1.893       .  S
O1399      C1420   1.257       .  A
O1400     Ni1423   1.918       .  S
O1400      C1409   1.270       .  A
O1401     Ni1405   1.901       .  S
O1401     Ni1423   1.895       .  S
O1401      H1424   0.966       .  S
C1402      O1419   1.278       .  A
C1402      O1411   1.283       .  A
C1402      C1571   1.482       .  S
O1403     Ni1422   1.944   1_545  S
O1404     Ni1422   1.904       .  S
O1404      C1406   1.270       .  A
Ni1405     O1408   1.910       .  S
Ni1405     O1410   1.896       .  S
C1406      O1416   1.273       .  A
C1406      C1488   1.483       .  S
O1407     Ni1423   1.936       .  S
O1407      C1413   1.283       .  A
O1408      C1413   1.276       .  A
C1409      C1531   1.512       .  S
O1410      C1412   1.265       .  A
O1411     Ni1422   1.933       .  S
C1412      O1418   1.266       .  A
C1412      C1501   1.472       .  S
C1413      C1558   1.481       .  S
O1415     Ni1417   1.900   1_545  S
O1415     Ni1422   1.884   1_545  S
O1416     Ni1417   1.929       .  S
Ni1417     O1421   1.922       .  S
Ni1417     O1419   1.922       .  S
O1418     Ni1423   1.917       .  S
C1420      C1631   1.474       .  S
O1425     Ni1431   1.909       .  S
O1425      C3462   1.263       .  A
O1426     Ni1449   1.903       .  S
O1426      C1435   1.268       .  A
O1427     Ni1431   1.900       .  S
O1427     Ni1449   1.901       .  S
O1427     Ni3459   1.915       .  S
O1427      H3466   0.967       .  S
C1428      O1445   1.284       .  A
C1428      O1437   1.285       .  A
C1428      C1491   1.486       .  S
O1429     Ni1448   1.962       .  S
O1429      C3451   1.279       .  A
O1430     Ni1448   1.906       .  S
O1430      C1432   1.269       .  A
Ni1431     O1434   1.920       .  S
Ni1431     O1436   1.906       .  S
C1432      O1442   1.281       .  A
C1432      C1551   1.502       .  S
O1433     Ni1449   1.907       .  S
O1433      C1439   1.273       .  A
O1434      C1439   1.277       .  A
C1435      O3445   1.280       .  A
C1435      C1481   1.524       .  S
O1436      C1438   1.268       .  A
O1437     Ni1448   1.935       .  S
C1438      O1444   1.276       .  A
C1438      C1541   1.505       .  S
C1439      C1498   1.463       .  S
H1440      O1441   0.966       .  S
O1441     Ni3465   1.891   1_455  S
O1441     Ni1443   1.909       .  S
O1441     Ni1448   1.887       .  S
O1442     Ni1443   1.958       .  S
Ni1443     O1447   1.949       .  S
Ni1443     O1445   1.930       .  S
Ni1443     O3443   1.917       .  S
O1444     Ni1449   1.955       .  S
C1446      O3441   1.263   1_455  A
C1446      O1447   1.278       .  A
C1446      C1751   1.488       .  S
Ni1449     O3457   1.892       .  S
H1450      O3443   0.967       .  S
O1451     Ni1457   1.912       .  S
O1451      C1472   1.265       .  A
O1452     Ni1475   1.893       .  S
O1452      C1461   1.266       .  A
O1453     Ni1457   1.912       .  S
O1453     Ni1475   1.914       .  S
O1453     Ni1469   1.929       .  S
O1453      H1476   0.979       .  S
C1454      O1471   1.279       .  A
C1454      O1463   1.285       .  A
O1455     Ni1474   1.960       .  S
O1455      C1461   1.277       .  A
O1456     Ni1474   1.896       .  S
O1456      C1458   1.268       .  A
Ni1457     O1460   1.921       .  S
Ni1457     O1462   1.895       .  S
C1458      O1468   1.278       .  A
C1458      C3524   1.484       .  S
O1459     Ni1475   1.931       .  S
O1459      C1465   1.275       .  A
O1460      C1465   1.272       .  A
C1461      C1478   1.497       .  S
O1462      C1464   1.266       .  A
O1463     Ni1474   1.949       .  S
C1464      O1470   1.275       .  A
C1464      C1518   1.475       .  S
C1465      C1608   1.492       .  S
H1466      O1467   0.958       .  S
O1467     Ni1475   1.914       .  S
O1467     Ni1469   1.906       .  S
O1467     Ni1474   1.905       .  S
O1468     Ni1469   1.946       .  S
Ni1469     O1473   1.918       .  S
Ni1469     O1471   1.936       .  S
O1470     Ni1475   1.946       .  S
C1472      O1473   1.271       .  A
C1472      C1961   1.468       .  S
C1477      C1478   1.414       .  A
C1477      C3498   1.421       .  A
C1477     Br3500   1.933       .  S
C1478      C1479   1.404       .  A
C1479      C1480   1.408       .  A
C1479     Br1486   1.938       .  S
C1480      C1481   1.424       .  A
C1480     Br1485   1.918       .  S
C1481      C3498   1.427       .  A
C1482      C3493   1.421       .  A
C1482      C3497   1.428   1_455  A
C1482     Br1483   1.933       .  S
Br1484     C3493   1.934       .  S
C1487      C1488   1.410       .  A
C1487      C1492   1.408       .  A
C1487     Br1494   1.931       .  S
C1488      C1489   1.416       .  A
C1489      C1490   1.409       .  A
C1489     Br1496   1.932       .  S
C1490      C1491   1.410       .  A
C1490     Br1495   1.922       .  S
C1491      C1492   1.413       .  A
C1492     Br1493   1.932       .  S
C1497      C1498   1.406       .  A
C1497      C1502   1.405       .  A
C1497     Br1504   1.928       .  S
C1498      C1499   1.405       .  A
C1499      C1500   1.400       .  A
C1499     Br1506   1.928       .  S
C1500      C1501   1.411       .  A
C1500     Br1505   1.928       .  S
C1501      C1502   1.411       .  A
C1502     Br1503   1.929       .  S
C1507      C1508   1.414       .  A
C1507      C1512   1.400       .  A
C1507     Br3530   1.935   1_455  S
C1508      C3474   1.480   1_455  S
C1508      C1509   1.411       .  A
C1509      C1510   1.416       .  A
C1509     Br1516   1.928       .  S
C1510      C1511   1.413       .  A
C1510     Br1515   1.926       .  S
C1511      C1512   1.408       .  A
C1512     Br1513   1.931       .  S
Br1514     C3523   1.934       .  S
C1517      C1518   1.407       .  A
C1517      C1522   1.399       .  A
C1517     Br1524   1.933       .  S
C1518      C1519   1.411       .  A
C1519      C1520   1.415       .  A
C1519     Br1526   1.925       .  S
C1520      C1521   1.411       .  A
C1520     Br1525   1.926       .  S
C1521      C1522   1.413       .  A
C1522     Br1523   1.930       .  S
C1527      C1528   1.406       .  A
C1527      C1532   1.414       .  A
C1527     Br1534   1.935       .  S
C1528      C1529   1.409       .  A
C1529      C1530   1.415       .  A
C1529     Br1536   1.930       .  S
C1530      C1531   1.421       .  A
C1530     Br1535   1.934       .  S
C1531      C1532   1.426       .  A
C1532     Br1533   1.924       .  S
C1537      C1538   1.409       .  A
C1537      C1542   1.407       .  A
C1537     Br1544   1.934       .  S
C1538      C1539   1.418       .  A
C1539      C1540   1.416       .  A
C1539     Br1546   1.929       .  S
C1540      C1541   1.411       .  A
C1540     Br1545   1.917       .  S
C1541      C1542   1.414       .  A
C1542     Br1543   1.919       .  S
C1547      C1548   1.418       .  A
C1547      C1552   1.413       .  A
C1547     Br1554   1.933       .  S
C1548      C1549   1.425       .  A
C1549      C1550   1.416       .  A
C1549     Br1556   1.934       .  S
C1550      C1551   1.409       .  A
C1550     Br1555   1.926       .  S
C1551      C1552   1.411       .  A
C1552     Br1553   1.926       .  S
C1557      C1558   1.412       .  A
C1557      C1562   1.416       .  A
C1557     Br1564   1.927       .  S
C1558      C1559   1.415       .  A
C1559      C1560   1.398       .  A
C1559     Br1566   1.932       .  S
C1560      C1561   1.406       .  A
C1560     Br1565   1.935       .  S
C1561      C1562   1.411       .  A
C1562     Br1563   1.926       .  S
C1567      C1568   1.411       .  A
C1567      C1572   1.416       .  A
C1567     Br1574   1.926       .  S
C1568      C1569   1.417       .  A
C1569      C1570   1.402       .  A
C1569     Br1576   1.936       .  S
C1570      C1571   1.409       .  A
C1570     Br1575   1.936       .  S
C1571      C1572   1.414       .  A
C1572     Br1573   1.928       .  S
C1577      C1578   1.416       .  A
C1577      C1582   1.407       .  A
C1577     Br1584   1.936       .  S
C1578      C3340   1.494   1_455  S
C1578      C1579   1.417       .  A
C1579      C1580   1.413       .  A
C1579     Br3602   1.931       .  S
C1580      C1581   1.416       .  A
C1581      C1582   1.411       .  A
C1582     Br1583   1.931       .  S
Br1586     C3595   1.932       .  S
C1587      C1588   1.412       .  A
C1587      C1592   1.409       .  A
C1587     Br1594   1.926       .  S
C1588      C1589   1.410       .  A
C1589      C1590   1.404       .  A
C1589     Br1596   1.934       .  S
C1590      C1591   1.414       .  A
C1590     Br1595   1.935       .  S
C1591      C1592   1.416       .  A
C1592     Br1593   1.933       .  S
C1597      C1598   1.413       .  A
C1597      C1602   1.422       .  A
C1597     Br1604   1.927       .  S
C1598      C1599   1.416       .  A
C1599      C1600   1.415       .  A
C1599     Br1606   1.932       .  S
C1600      C1601   1.416       .  A
C1600     Br1605   1.932       .  S
C1601      C1602   1.424       .  A
C1607      C1608   1.414       .  A
C1607      C1612   1.415       .  A
C1607     Br1614   1.925       .  S
C1608      C1609   1.409       .  A
C1609      C1610   1.411       .  A
C1609     Br1616   1.930       .  S
C1610      C1611   1.414       .  A
C1610     Br1615   1.926       .  S
C1611      C1612   1.411       .  A
C1612     Br1613   1.920       .  S
C1617      C1618   1.405       .  A
C1617      C1622   1.408       .  A
C1617     Br1624   1.930       .  S
C1618      C1619   1.411       .  A
C1619      C1620   1.407       .  A
C1619     Br1626   1.925       .  S
C1620      C1621   1.407       .  A
C1620     Br1625   1.929       .  S
C1621      C1622   1.414       .  A
C1622     Br1623   1.924       .  S
C1627      C1628   1.408       .  A
C1627      C1632   1.409   1_554  A
C1627     Br1634   1.929       .  S
C1628      C1629   1.408       .  A
C1629      C1630   1.407   1_554  A
C1629     Br1636   1.929       .  S
C1630      C1631   1.411       .  A
C1630     Br1635   1.931       .  S
C1631      C1632   1.412       .  A
C1632     Br1633   1.931       .  S
C1637      C1638   1.410       .  A
C1637      C1642   1.412       .  A
C1638      C1639   1.413       .  A
C1639      C1640   1.406       .  A
C1639     Br1646   1.921       .  S
C1640      C1641   1.404       .  A
C1640     Br1645   1.930       .  S
C1641      C1642   1.414       .  A
C1642     Br1643   1.927   1_565  S
C1647      C1648   1.403       .  A
C1647      C1652   1.407   1_554  A
C1647     Br1654   1.929       .  S
C1648      C1649   1.414       .  A
C1649      C1650   1.408   1_554  A
C1649     Br1656   1.930       .  S
C1650      C1651   1.407       .  A
C1650     Br1655   1.932       .  S
C1651      C1652   1.415       .  A
C1652     Br1653   1.931       .  S
C1657      C1658   1.418       .  A
C1657      C1662   1.409       .  A
C1657     Br1664   1.933       .  S
C1658      C1659   1.416       .  A
C1659      C1660   1.403       .  A
C1659     Br1666   1.930       .  S
C1660      C1661   1.407       .  A
C1660     Br1665   1.932       .  S
C1661      C1662   1.412       .  A
C1662     Br1663   1.928       .  S
C1667      C1668   1.420       .  A
C1667      C1672   1.403       .  A
C1667     Br1674   1.933       .  S
C1668      C1669   1.416       .  A
C1669      C1670   1.427       .  A
C1669     Br1676   1.924       .  S
C1670      C1671   1.417       .  A
C1670     Br1675   1.926       .  S
C1671      C1672   1.409       .  A
C1672     Br1673   1.937       .  S
C1677      C1678   1.416       .  A
C1677      C1682   1.409       .  A
C1677     Br1684   1.934       .  S
C1678      C1679   1.415       .  A
C1679      C1680   1.416       .  A
C1679     Br1686   1.931       .  S
C1680      C1681   1.421       .  A
C1680     Br3701   1.931       .  S
C1681      C3314   1.503       .  S
C1681      C1682   1.414       .  A
C1682     Br1683   1.934       .  S
Br1685     C3696   1.931   1_455  S
C1687      C1688   1.419       .  A
C1687      C1692   1.415       .  A
C1687     Br1694   1.934       .  S
C1688      C1689   1.408       .  A
C1689      C1690   1.406       .  A
C1689     Br1696   1.933       .  S
C1690      C1691   1.418       .  A
C1690     Br1695   1.933       .  S
C1691      C1692   1.415       .  A
C1692     Br1693   1.931       .  S
C1697      C1698   1.415       .  A
C1697      C1702   1.410       .  A
C1697     Br1704   1.921       .  S
C1698      C1699   1.410       .  A
C1699      C1700   1.414       .  A
C1699     Br1706   1.929       .  S
C1700      C1701   1.414       .  A
C1700     Br1705   1.926       .  S
C1701      C1702   1.404       .  A
C1702     Br1703   1.930       .  S
C1707      C1708   1.416       .  A
C1707      C1712   1.410       .  A
C1707     Br1714   1.933       .  S
C1708      C1709   1.422       .  A
C1709      C1710   1.414       .  A
C1709     Br1716   1.929       .  S
C1710      C1711   1.410       .  A
C1711      C1712   1.412       .  A
C1712     Br1713   1.933       .  S
C1717      C1718   1.402       .  A
C1717      C1722   1.395       .  A
C1717     Br1724   1.916       .  S
C1718      C1719   1.414       .  A
C1719      C1720   1.419       .  A
C1719     Br1726   1.926       .  S
C1720      C1721   1.411       .  A
C1720     Br1725   1.925       .  S
C1721      C1722   1.406       .  A
C1722     Br1723   1.917       .  S
C1727      C1728   1.419       .  A
C1727      C1732   1.418       .  A
C1727     Br1734   1.929       .  S
C1728      C1729   1.417       .  A
C1729      C1730   1.409       .  A
C1729     Br1736   1.934       .  S
C1730      C1731   1.412       .  A
C1730     Br3751   1.934       .  S
C1731      C3214   1.500       .  S
C1731      C1732   1.414       .  A
C1732     Br1733   1.926       .  S
Br1735     C3746   1.932       .  S
C1737      C1738   1.415       .  A
C1737      C1742   1.415       .  A
C1737     Br1744   1.933       .  S
C1738      C1739   1.412       .  A
C1739      C1740   1.404       .  A
C1739     Br1746   1.931       .  S
C1740      C1741   1.411       .  A
C1740     Br1745   1.934       .  S
C1741      C1742   1.419       .  A
C1742     Br1743   1.931       .  S
C1747      C1748   1.413       .  A
C1747      C1752   1.414   1_554  A
C1747     Br1754   1.930       .  S
C1748      C3765   1.409       .  A
C1749      C3764   1.408       .  A
C1749      C1750   1.410   1_554  A
C1749     Br1756   1.929       .  S
C1750      C3767   1.413       .  A
C1750     Br1755   1.924       .  S
C1751      C3766   1.412       .  A
C1751      C1752   1.411       .  A
C1752     Br1753   1.927       .  S
C1757      C1758   1.410       .  A
C1757      C1762   1.409       .  A
C1757     Br1764   1.925       .  S
C1758      C1759   1.412       .  A
C1759      C1760   1.403       .  A
C1759     Br1766   1.931       .  S
C1760      C1761   1.409       .  A
C1760     Br1765   1.931       .  S
C1761      C1762   1.416       .  A
C1762     Br1763   1.931       .  S
C1767      C1768   1.415       .  A
C1767      C1772   1.412       .  A
C1767     Br1774   1.933       .  S
C1768      C1769   1.413       .  A
C1769      C1770   1.415       .  A
C1769     Br1776   1.924       .  S
C1770      C1771   1.416       .  A
C1770     Br1775   1.932       .  S
C1771      C1772   1.413       .  A
C1772     Br1773   1.932       .  S
C1777      C1778   1.413       .  A
C1777      C1782   1.403       .  A
C1777     Br1784   1.926       .  S
C1778      C1779   1.414       .  A
C1779      C1780   1.417       .  A
C1779     Br1786   1.925       .  S
C1780      C1781   1.413       .  A
C1780     Br1785   1.924       .  S
C1781      C1782   1.407       .  A
C1782     Br1783   1.933       .  S
C1787      C1788   1.426       .  A
C1787      C1792   1.421       .  A
C1787     Br1794   1.933       .  S
C1788      C1789   1.413       .  A
C1789      C1790   1.413       .  A
C1789     Br1796   1.932       .  S
C1790      C1791   1.419       .  A
C1790     Br1795   1.933       .  S
C1791      C1792   1.415       .  A
C1792     Br1793   1.929       .  S
C1797      C1798   1.416       .  A
C1797      C1802   1.411       .  A
C1797     Br1804   1.917       .  S
C1798      C1799   1.411       .  A
C1799      C1800   1.414       .  A
C1799     Br1806   1.929       .  S
C1800      C1801   1.414       .  A
C1800     Br1805   1.927       .  S
C1801      C1802   1.405       .  A
C1802     Br3819   1.930       .  S
Br1803     C3818   1.931       .  S
C1807      C1808   1.412       .  A
C1807      C1812   1.412       .  A
C1807     Br1814   1.929       .  S
C1808      C1809   1.405       .  A
C1809      C1810   1.408       .  A
C1809     Br1816   1.930       .  S
C1810      C1811   1.414       .  A
C1810     Br1815   1.927       .  S
C1811      C1812   1.411       .  A
C1812     Br1813   1.930       .  S
C1817      C1818   1.413       .  A
C1817      C1822   1.408       .  A
C1817     Br1824   1.924       .  S
C1818      C1819   1.410       .  A
C1819      C1820   1.410       .  A
C1819     Br1826   1.931       .  S
C1820      C1821   1.411       .  A
C1820     Br1825   1.929       .  S
C1821      C1822   1.405       .  A
C1822     Br1823   1.929       .  S
C1827      C1828   1.411       .  A
C1827      C1832   1.414       .  A
C1827     Br1834   1.937       .  S
C1828      C1829   1.416       .  A
C1829      C1830   1.422       .  A
C1829     Br1836   1.925       .  S
C1830      C1831   1.425       .  A
C1830     Br1835   1.934       .  S
C1831      C1832   1.427       .  A
C1832     Br1833   1.926       .  S
C1837      C1838   1.406       .  A
C1837      C1842   1.407       .  A
C1837     Br1844   1.928       .  S
C1838      C1839   1.410       .  A
C1839      C1840   1.405       .  A
C1839     Br1846   1.932       .  S
C1840      C1841   1.409       .  A
C1840     Br1845   1.932       .  S
C1841      C1842   1.410       .  A
C1842     Br1843   1.928       .  S
C1847      C1848   1.413       .  A
C1847      C1852   1.407       .  A
C1847     Br1854   1.930       .  S
C1848      C3168   1.499   1_455  S
C1848      C1849   1.412       .  A
C1849      C1850   1.417       .  A
C1849     Br3872   1.926   1_455  S
C1850      C1851   1.420       .  A
C1850     Br1855   1.928       .  S
C1851      C1852   1.412       .  A
C1852     Br1853   1.932       .  S
Br1856     C3865   1.925       .  S
C1857      C1858   1.412       .  A
C1857      C1862   1.420       .  A
C1857     Br1864   1.923       .  S
C1858      C1859   1.412       .  A
C1859      C1860   1.414       .  A
C1859     Br1866   1.928       .  S
C1860      C1861   1.417       .  A
C1860     Br1865   1.932       .  S
C1861      C1862   1.421       .  A
C1862     Br1863   1.931       .  S
C1867      C1868   1.415       .  A
C1867      C1872   1.408       .  A
C1867     Br1874   1.928       .  S
C1868      C1869   1.411       .  A
C1869      C1870   1.406       .  A
C1869     Br1876   1.930       .  S
C1870      C1871   1.406       .  A
C1870     Br1875   1.932       .  S
C1871      C1872   1.406       .  A
C1872     Br1873   1.930       .  S
C1877      C1878   1.415       .  A
C1877      C3898   1.414       .  A
C1877     Br1884   1.926   1_655  S
C1878      C3895   1.416       .  A
C1879      C3894   1.416       .  A
C1879      C1880   1.403       .  A
C1879     Br1886   1.930       .  S
C1880      C1881   1.407       .  A
C1880     Br1885   1.933       .  S
C1881      C1882   1.412       .  A
C1882      C3893   1.413       .  A
C1882     Br1883   1.922       .  S
C1887      C1888   1.417       .  A
C1887      C1892   1.416       .  A
C1887     Br1894   1.930       .  S
C1888      C1889   1.416       .  A
C1889      C1890   1.410       .  A
C1889     Br1896   1.932       .  S
C1890      C1891   1.412       .  A
C1890     Br1895   1.932       .  S
C1891      C1892   1.414       .  A
C1892     Br1893   1.922       .  S
C1897      C1902   1.412       .  A
C1897     Br1904   1.922       .  S
C1898      C1899   1.410       .  A
C1899     Br1906   1.929       .  S
C1900      C1901   1.411       .  A
C1901      C1902   1.406       .  A
C1902     Br1903   1.928       .  S
C1907      C1908   1.408       .  A
C1907      C1912   1.406       .  A
C1907     Br1914   1.931       .  S
C1908      C1909   1.406       .  A
C1909      C1910   1.407       .  A
C1909     Br1916   1.930       .  S
C1910      C1911   1.413       .  A
C1910     Br1915   1.928       .  S
C1911      C1912   1.411       .  A
C1912     Br1913   1.930       .  S
C1917      C1918   1.406       .  A
C1917      C1922   1.403       .  A
C1917     Br1924   1.933       .  S
C1918      C1919   1.414       .  A
C1919      C1920   1.406       .  A
C1920      C1921   1.411       .  A
C1920     Br1925   1.926       .  S
C1921      C1922   1.415       .  A
C1922     Br1923   1.931       .  S
C1927      C1928   1.413       .  A
C1927      C1932   1.419       .  A
C1927     Br1934   1.926       .  S
C1928      C1929   1.419       .  A
C1929      C1930   1.397       .  A
C1929     Br1936   1.934       .  S
C1930      C1931   1.404       .  A
C1930     Br1935   1.935       .  S
C1931      C1932   1.413       .  A
C1932     Br1933   1.926       .  S
C1937      C1938   1.419       .  A
C1937      C1942   1.418       .  A
C1937     Br1944   1.934       .  S
C1938      C1939   1.411       .  A
C1939      C1940   1.416       .  A
C1939     Br1946   1.925       .  S
C1940      C1941   1.410       .  A
C1940     Br1945   1.918       .  S
C1941      C1942   1.411       .  A
C1942     Br1943   1.914       .  S
C1947      C1948   1.417       .  A
C1947      C1952   1.407       .  A
C1947     Br1954   1.932       .  S
C1948      C1949   1.416       .  A
C1949      C1950   1.418       .  A
C1950      C1951   1.410       .  A
C1950     Br3971   1.924       .  S
C1951      C3065   1.488       .  S
C1951      C1952   1.409       .  A
C1952     Br1953   1.934       .  S
Br1955     C3966   1.927       .  S
C1957      C1958   1.411       .  A
C1957      C1962   1.409       .  A
C1957     Br1964   1.929       .  S
C1958      C1959   1.411       .  A
C1959      C1960   1.407       .  A
C1959     Br1966   1.930       .  S
C1960      C1961   1.407       .  A
C1960     Br1965   1.931       .  S
C1961      C1962   1.407       .  A
C1962     Br1963   1.928       .  S
C1967      C1968   1.416       .  A
C1967      C1972   1.416       .  A
C1967     Br1974   1.922       .  S
C1968      C1969   1.413       .  A
C1969      C1970   1.409       .  A
C1969     Br1976   1.931       .  S
C1970      C1971   1.410       .  A
C1970     Br1975   1.930       .  S
C1971      C1972   1.415       .  A
C1972     Br1973   1.932       .  S
C1977      C1982   1.410       .  A
C1977     Br1984   1.927       .  S
C1978      C1979   1.406       .  A
C1979     Br1986   1.915       .  S
C1980      C1981   1.405       .  A
C1980     Br1985   1.925       .  S
C1981      C1982   1.407       .  A
C1982     Br1983   1.927       .  S
C1987      C1988   1.412       .  A
C1987      C1992   1.399       .  A
C1987     Br1994   1.932       .  S
C1988      C1989   1.414       .  A
C1989      C1990   1.425       .  A
C1989     Br1996   1.926       .  S
C1990      C1991   1.417       .  A
C1990     Br1995   1.925       .  S
C1991      C1992   1.410       .  A
C1992     Br1993   1.931       .  S
C1997      C1998   1.409       .  A
C1997      C2002   1.403       .  A
C1997     Br2004   1.938       .  S
C1998      C1999   1.415       .  A
C1999      C2000   1.411       .  A
C1999     Br4022   1.927       .  S
C2000      C2001   1.416       .  A
C2000     Br2005   1.932       .  S
C2001      C2002   1.420       .  A
C2002     Br2003   1.931       .  S
Br2006     C4015   1.926       .  S
C2007      C4024   1.412   1_455  A
C2007      C2012   1.415       .  A
C2007     Br2014   1.929       .  S
C2008      C4023   1.413       .  A
C2008      C2009   1.409       .  A
C2009      C4026   1.413       .  A
C2009     Br2016   1.929       .  S
C2010      C4025   1.412       .  A
C2010      C2011   1.414   1_655  A
C2010     Br4031   1.925       .  S
C2011      C2012   1.411       .  A
C2012     Br2013   1.927       .  S
Br2015     C4026   1.925       .  S
O2017     Ni2023   1.905       .  S
O2017      C2038   1.262       .  A
O2018     Ni2041   1.896       .  S
O2018      C2027   1.263       .  A
O2019     Ni2023   1.905       .  S
O2019     Ni2041   1.894       .  S
O2019     Ni2035   1.916       .  S
O2019      H2042   0.966       .  S
C2020      O2037   1.282       .  A
C2020      O2029   1.281       .  A
C2020      C2999   1.485       .  S
O2021     Ni2040   1.949       .  S
O2021      C2027   1.273       .  A
O2022     Ni2040   1.895       .  S
O2022      C2024   1.267       .  A
Ni2023     O2028   1.897       .  S
C2024      O2034   1.279       .  A
C2024      C2979   1.489       .  S
O2025      C2031   1.266       .  A
O2026      C2031   1.278       .  A
C2027      C3016   1.485       .  S
O2028      C2030   1.265       .  A
O2029     Ni2040   1.928       .  S
C2030      O2036   1.271       .  A
C2030      C2986   1.484       .  S
C2031      C3006   1.471       .  S
H2032      O2033   0.966       .  S
O2033     Ni2041   1.907       .  S
O2033     Ni2035   1.917       .  S
O2033     Ni2040   1.892       .  S
O2034     Ni2035   1.947       .  S
Ni2035     O2039   1.940       .  S
Ni2035     O2037   1.938       .  S
O2036     Ni2041   1.940       .  S
C2038      O2039   1.276       .  A
C2038      C2966   1.478       .  S
O2043     Ni2049   1.919       .  S
O2043      C2064   1.267       .  A
O2044     Ni2067   1.899       .  S
O2044      C2053   1.266       .  A
O2045     Ni2049   1.917       .  S
O2045     Ni2067   1.918       .  S
O2045     Ni2061   1.929       .  S
O2045      H2068   0.966       .  S
C2046      O2063   1.281       .  A
C2046      O2055   1.285       .  A
C2046      C2946   1.495       .  S
O2047     Ni2066   1.952       .  S
O2047      C2053   1.275       .  A
O2048     Ni2066   1.894       .  S
O2048      C2050   1.267       .  A
Ni2049     O2052   1.915       .  S
Ni2049     O2054   1.898       .  S
C2050      O2060   1.281       .  A
C2050      C2936   1.497       .  S
O2051     Ni2067   1.921       .  S
O2051      C2057   1.270       .  A
O2052      C2057   1.271       .  A
C2053      C3019   1.484       .  S
O2054      C2056   1.268       .  A
O2055     Ni2066   1.945       .  S
C2056      O2062   1.271       .  A
C2056      C2929   1.493       .  S
H2058      O2059   0.966       .  S
O2059     Ni2067   1.906       .  S
O2059     Ni2061   1.905       .  S
O2059     Ni2066   1.888       .  S
O2060     Ni2061   1.956       .  S
Ni2061     O2065   1.929       .  S
Ni2061     O2063   1.930       .  S
O2062     Ni2067   1.935       .  S
C2064      O2065   1.274       .  A
C2064      C2916   1.479       .  S
O2069     Ni2075   1.911       .  S
O2069      C2090   1.264       .  A
O2070     Ni2093   1.908       .  S
O2070      C2079   1.269       .  A
O2071     Ni2075   1.901       .  S
O2071     Ni2093   1.894       .  S
O2071     Ni2087   1.916       .  S
O2071      H2094   0.965       .  S
C2072      O2089   1.282       .  A
C2072      O2081   1.283       .  A
C2072      C2939   1.484       .  S
O2073     Ni2092   1.953       .  S
O2073      C2079   1.277       .  A
O2074     Ni2092   1.895       .  S
O2074      C2076   1.267       .  A
Ni2075     O3086   1.923       .  S
Ni2075     O2080   1.896       .  S
C2076      O2086   1.280       .  A
C2076      C2896   1.494       .  S
O2077     Ni3101   1.919       .  S
O2077      C2083   1.276   1_565  A
O2078     Ni3083   1.912       .  S
O2078      C2083   1.275   1_565  A
C2079      C2906   1.496       .  S
O2080      C2082   1.266       .  A
O2081     Ni2092   1.929       .  S
C2082      O2088   1.274       .  A
C2082      C2886   1.499       .  S
C2083      C2926   1.484       .  S
H2084      O2085   0.969       .  S
O2085     Ni2093   1.906       .  S
O2085     Ni2087   1.909       .  S
O2085     Ni2092   1.882       .  S
O2086     Ni2087   1.951       .  S
Ni2087     O2091   1.935       .  S
Ni2087     O2089   1.935       .  S
O2088     Ni2093   1.948       .  S
C2090      O2091   1.276       .  A
C2090      C2876   1.479       .  S
Ni2093     O3085   1.899       .  S
O2095     Ni2101   1.907       .  S
O2095      C2116   1.262       .  A
O2096     Ni2119   1.893       .  S
O2096      C2105   1.265       .  A
O2097     Ni2101   1.913       .  S
O2097     Ni2119   1.905       .  S
O2097     Ni2113   1.931       .  S
O2097      H2120   0.968       .  S
C2098      O2115   1.282       .  A
C2098      O2107   1.286       .  A
C2098      C2869   1.515       .  S
O2099     Ni2118   1.953       .  S
O2099      C2105   1.277       .  A
O2100     Ni2118   1.893       .  S
O2100      C2102   1.268       .  A
Ni2101     O2104   1.920       .  S
Ni2101     O2106   1.890       .  S
C2102      O2112   1.279       .  A
C2102      C2996   1.487       .  S
O2103     Ni2119   1.931       .  S
O2103      C2109   1.274   1_545  A
O2104      C2109   1.275   1_545  A
C2105      C2909   1.481       .  S
O2106      C2108   1.264       .  A
O2107     Ni2118   1.949       .  S
C2108      O2114   1.268       .  A
C2108      C3009   1.473       .  S
C2109      C3867   1.500       .  S
H2110      O2111   0.966       .  S
O2111     Ni2119   1.914       .  S
O2111     Ni2113   1.901       .  S
O2111     Ni2118   1.887       .  S
O2112     Ni2113   1.951       .  S
Ni2113     O2117   1.922       .  S
Ni2113     O2115   1.939       .  S
O2114     Ni2119   1.922       .  S
C2116      O2117   1.271       .  A
C2116      C2846   1.464       .  S
O2121     Ni2127   1.909       .  S
O2121      C2142   1.262       .  A
O2122     Ni2145   1.898       .  S
O2122      C2131   1.268       .  A
O2123     Ni2127   1.911       .  S
O2123     Ni2145   1.910       .  S
O2123     Ni2139   1.922       .  S
O2123      H2146   0.966       .  S
C2124      O2141   1.281       .  A
C2124      O2133   1.286       .  A
C2124      C2899   1.501       .  S
O2125     Ni2144   1.965       .  S
O2125      C2131   1.281       .  A
O2126     Ni2144   1.918       .  S
O2126      C2128   1.271       .  A
Ni2127     O2130   1.911       .  S
Ni2127     O2132   1.899       .  S
C2128      O2138   1.280       .  A
C2128      C2949   1.501       .  S
O2129     Ni2145   1.926       .  S
O2129      C2135   1.274       .  A
O2130      C2135   1.275       .  A
C2131      C2836   1.505       .  S
O2132      C2134   1.266       .  A
O2133     Ni2144   1.941       .  S
C2134      O2140   1.277       .  A
C2134      C3964   1.498       .  S
C2135      C2889   1.487       .  S
H2136      O2137   0.966       .  S
O2137     Ni2145   1.902       .  S
O2137     Ni2139   1.911       .  S
O2137     Ni2144   1.896       .  S
O2138     Ni2139   1.959       .  S
Ni2139     O2143   1.937       .  S
Ni2139     O2141   1.932       .  S
O2140     Ni2145   1.956       .  S
C2142      O2143   1.273       .  A
C2142      C2826   1.478       .  S
O2147     Ni2153   1.910       .  S
O2147      C2168   1.263       .  A
O2148     Ni2171   1.902       .  S
O2148      C2157   1.264       .  A
O2149     Ni2153   1.911       .  S
O2149     Ni2171   1.907       .  S
O2149     Ni2165   1.925       .  S
O2149      H2172   0.967       .  S
C2150      O2167   1.284       .  A
C2150      O2159   1.287       .  A
C2150      C2976   1.499       .  S
O2151     Ni2170   1.965       .  S
O2151      C2157   1.281       .  A
O2152     Ni2170   1.905       .  S
O2152      C2154   1.269       .  A
Ni2153     O2156   1.925       .  S
Ni2153     O2158   1.904       .  S
C2154      O2164   1.286       .  A
C2154      C2866   1.511       .  S
O2155     Ni2171   1.924       .  S
O2155      C2161   1.276       .  A
O2156      C2161   1.276       .  A
C2157      C2839   1.522       .  S
O2158      C2160   1.267       .  A
O2159     Ni2170   1.943       .  S
C2160      O2166   1.270       .  A
C2161      C2989   1.477       .  S
H2162      O2163   0.966       .  S
O2163     Ni2171   1.901       .  S
O2163     Ni2165   1.902       .  S
O2163     Ni2170   1.881       .  S
O2164     Ni2165   1.973       .  S
Ni2165     O2169   1.940       .  S
Ni2165     O2167   1.933       .  S
O2166     Ni2171   1.941       .  S
C2168      O2169   1.276       .  A
C2168      C2816   1.486       .  S
O2173     Ni2179   1.907       .  S
O2173      C2194   1.261       .  A
O2174     Ni2197   1.904       .  S
O2174      C2183   1.270       .  A
O2175     Ni2179   1.903       .  S
O2175     Ni2197   1.898       .  S
O2175      H2198   0.967       .  S
C2176      O2193   1.283       .  A
C2176      O2185   1.283       .  A
C2176      C2776   1.496       .  S
O2177     Ni2196   1.959       .  S
O2178     Ni2196   1.898       .  S
O2178      C2180   1.268       .  A
Ni2179     O2182   1.926       .  S
Ni2179     O2184   1.901       .  S
C2180      O2190   1.281       .  A
C2180      C2799   1.502       .  S
O2181     Ni2197   1.916       .  S
O2181      C2187   1.273       .  A
O2182      C2187   1.277       .  A
C2183      C2809   1.500       .  S
O2184      C2186   1.267       .  A
O2185     Ni2196   1.935       .  S
C2186      O2192   1.277       .  A
C2186      C2786   1.504       .  S
C2187      C2769   1.485       .  S
O2189     Ni2191   1.913       .  S
O2189     Ni2196   1.897       .  S
O2190     Ni2191   1.959       .  S
Ni2191     O2195   1.944       .  S
Ni2191     O2193   1.938       .  S
O2192     Ni2197   1.956       .  S
C2194      C2756   1.477       .  S
O2199     Ni2205   1.912       .  S
O2199      C2220   1.263       .  A
O2200     Ni2223   1.904       .  S
O2200      C2209   1.268       .  A
O2201     Ni2205   1.906       .  S
O2201     Ni2223   1.905       .  S
O2201     Ni2217   1.918       .  S
O2201      H2224   0.966       .  S
C2202      O2219   1.284       .  A
C2202      O2211   1.283       .  A
C2202      C2716   1.501       .  S
O2203     Ni2222   1.960       .  S
O2203      C2209   1.278       .  A
O2204     Ni2222   1.900       .  S
O2204      C2206   1.269       .  A
Ni2205     O2208   1.919       .  S
Ni2205     O2210   1.893       .  S
C2206      O2216   1.278       .  A
O2207     Ni2223   1.912       .  S
O2207      C2213   1.271       .  A
O2208      C2213   1.276       .  A
C2209      C2806   1.496       .  S
O2210      C2212   1.266       .  A
O2211     Ni2222   1.932       .  S
C2212      O2218   1.275       .  A
C2212      C2746   1.491       .  S
C2213      C2729   1.479       .  S
H2214      O2215   0.966       .  S
O2215     Ni2223   1.908       .  S
O2215     Ni2217   1.911       .  S
O2215     Ni2222   1.894       .  S
O2216     Ni2217   1.950       .  S
Ni2217     O2221   1.938       .  S
Ni2217     O2219   1.941       .  S
O2218     Ni2223   1.949       .  S
C2220      O2221   1.276       .  A
C2220      C2919   1.481       .  S
O2225     Ni2231   1.917       .  S
O2225      C2246   1.264       .  A
O2226     Ni2249   1.896       .  S
O2226      C2235   1.266       .  A
O2227     Ni2231   1.906       .  S
O2227     Ni2249   1.904       .  S
O2227     Ni2243   1.921       .  S
O2227      H2250   0.967       .  S
C2228      O2245   1.282       .  A
C2228      O2237   1.284       .  A
C2228      C3744   1.500       .  S
O2229     Ni2248   1.959       .  S
O2229      C2235   1.278       .  A
O2230     Ni2248   1.898       .  S
O2230      C2232   1.269       .  A
Ni2231     O2234   1.920       .  S
Ni2231     O2236   1.895       .  S
C2232      O2242   1.278       .  A
C2232      C2686   1.493       .  S
O2233     Ni2249   1.920       .  S
O2233      C2239   1.272       .  A
O2234      C2239   1.276       .  A
C2235      C2709   1.487       .  S
O2236      C2238   1.267       .  A
O2237     Ni2248   1.938       .  S
C2238      O2244   1.270       .  A
C2238      C2699   1.483       .  S
C2239      C2749   1.490       .  S
H2240      O2241   0.966       .  S
O2241     Ni2249   1.906       .  S
O2241     Ni2243   1.908       .  S
O2241     Ni2248   1.895       .  S
O2242     Ni2243   1.949       .  S
Ni2243     O2247   1.936       .  S
Ni2243     O2245   1.933       .  S
O2244     Ni2249   1.934       .  S
C2246      O2247   1.275       .  A
C2246      C2829   1.482       .  S
O2251     Ni2257   1.902       .  S
O2251      C2272   1.261       .  A
O2252     Ni2275   1.900       .  S
O2252      C2261   1.267       .  A
O2253     Ni2257   1.904       .  S
O2253     Ni2275   1.897       .  S
O2253     Ni2269   1.925       .  S
O2253      H2276   0.967       .  S
C2254      O2271   1.282       .  A
C2254      O2263   1.285       .  A
C2254      C2679   1.494       .  S
O2255     Ni2274   1.959       .  S
O2255      C2261   1.279       .  A
O2256     Ni2274   1.905       .  S
O2256      C2258   1.270       .  A
Ni2257     O2260   1.920       .  S
Ni2257     O2262   1.892       .  S
C2258      O2268   1.276       .  A
C2258      C2779   1.493       .  S
O2259     Ni2275   1.916       .  S
O2259      C2265   1.272       .  A
O2260      C2265   1.277       .  A
C2261      C2706   1.489       .  S
O2262      C2264   1.265       .  A
O2263     Ni2274   1.940       .  S
C2264      O2270   1.275       .  A
C2264      C2766   1.485       .  S
C2265      C2669   1.482       .  S
H2266      O2267   0.966       .  S
O2267     Ni2275   1.912       .  S
O2267     Ni2269   1.910       .  S
O2267     Ni2274   1.891       .  S
O2268     Ni2269   1.944       .  S
Ni2269     O2273   1.926       .  S
Ni2269     O2271   1.934       .  S
O2270     Ni2275   1.947       .  S
C2272      O2273   1.271       .  A
C2272      C2656   1.475       .  S
O2277     Ni2283   1.906       .  S
O2277      C3306   1.263       .  A
O2278     Ni2301   1.899       .  S
O2278      C3295   1.267       .  A
O2279     Ni2283   1.917       .  S
O2279     Ni2301   1.913       .  S
O2279     Ni3303   1.937       .  S
O2279      H3310   0.966       .  S
C2280      O2297   1.277       .  A
C2280      O2289   1.284       .  A
C2280      C2796   1.507       .  S
O2281     Ni2300   1.951       .  S
O2281      C2287   1.277   1_545  A
O2282     Ni2300   1.896       .  S
O2282      C2284   1.269       .  A
Ni2283     O2286   1.913       .  S
Ni2283     O2288   1.895       .  S
C2284      O2294   1.283       .  A
C2284      C2676   1.498       .  S
O2285     Ni2301   1.941       .  S
O2285      C2291   1.276       .  A
O2286      C2291   1.272       .  A
C2287      O3286   1.267       .  A
C2287      C3654   1.484       .  S
O2288      C2290   1.265       .  A
O2289     Ni2300   1.937       .  S
C2290      O2296   1.270       .  A
C2290      C2666   1.482       .  S
C2291      C2789   1.504       .  S
H2292      O2293   0.966   1_565  S
O2293     Ni3309   1.906   1_545  S
O2293     Ni2295   1.899       .  S
O2293     Ni2300   1.889       .  S
O2294     Ni2295   1.962       .  S
Ni2295     O2299   1.914       .  S
Ni2295     O2297   1.927       .  S
Ni2295     O3287   1.933   1_545  S
O2296     Ni2301   1.928       .  S
C2298      O3285   1.266   1_545  A
C2298      O2299   1.271       .  A
C2298      C2636   1.463       .  S
Ni2301     O3301   1.916       .  S
H2302      O3287   0.965       .  S
O2303     Ni2309   1.922       .  S
O2303      C2324   1.267       .  A
O2304     Ni2327   1.896       .  S
O2304      C2313   1.267       .  A
O2305     Ni2309   1.904       .  S
O2305     Ni2327   1.901       .  S
O2305     Ni2321   1.911       .  S
O2305      H2328   0.966       .  S
C2306      O2323   1.277       .  A
C2306      O2315   1.286       .  A
O2307     Ni2326   1.965       .  S
O2307      C2313   1.280       .  A
O2308     Ni2326   1.899       .  S
O2308      C2310   1.268       .  A
Ni2309     O2312   1.920       .  S
Ni2309     O2314   1.897       .  S
C2310      O2320   1.279       .  A
C2310      C3727   1.492       .  S
O2311     Ni2327   1.909       .  S
O2311      C2317   1.271       .  A
O2312      C2317   1.276       .  A
C2313      C2649   1.492       .  S
O2314      C2316   1.268       .  A
O2315     Ni2326   1.946       .  S
C2316      O2322   1.271       .  A
C2316      C2726   1.491       .  S
C2317      C2696   1.480       .  S
H2318      O2319   0.966       .  S
O2319     Ni2327   1.908       .  S
O2319     Ni2321   1.904       .  S
O2319     Ni2326   1.893       .  S
O2320     Ni2321   1.950       .  S
Ni2321     O2325   1.923       .  S
Ni2321     O2323   1.923       .  S
O2322     Ni2327   1.939       .  S
C2324      O2325   1.271       .  A
C2324      C2879   1.476       .  S
O2329     Ni2335   1.905       .  S
O2329      C2350   1.263       .  A
O2330     Ni2353   1.892       .  S
O2330      C2339   1.265       .  A
O2331     Ni2335   1.907       .  S
O2331     Ni2353   1.896       .  S
O2331     Ni2347   1.926       .  S
O2331      H2354   0.967       .  S
C2332      O2349   1.284       .  A
C2332      O2341   1.284       .  A
O2333     Ni2352   1.958       .  S
O2333      C2339   1.279       .  A
O2334     Ni2352   1.904       .  S
O2334      C2336   1.269       .  A
Ni2335     O2338   1.921       .  S
Ni2335     O2340   1.915       .  S
C2336      O2346   1.287       .  A
C2336      C2606   1.515       .  S
O2337     Ni2353   1.926       .  S
O2337      C2343   1.276       .  A
O2338      C2343   1.278       .  A
C2339      C2626   1.481       .  S
O2340      C2342   1.268       .  A
O2341     Ni2352   1.938       .  S
C2342      O2348   1.276       .  A
C2342      C2619   1.505       .  S
C2343      C2596   1.489       .  S
H2344      O2345   0.966       .  S
O2345     Ni2353   1.911       .  S
O2345     Ni2347   1.910       .  S
O2345     Ni2352   1.893       .  S
O2346     Ni2347   1.981       .  S
Ni2347     O2351   1.940       .  S
Ni2347     O2349   1.938       .  S
O2348     Ni2353   1.957       .  S
C2350      O2351   1.277       .  A
C2350      C2819   1.478       .  S
O2355     Ni2361   1.907       .  S
O2355      C2376   1.262       .  A
O2356     Ni2379   1.907       .  S
O2356      C2365   1.269       .  A
O2357     Ni2361   1.907       .  S
O2357     Ni2379   1.906       .  S
O2357     Ni2373   1.923       .  S
O2357      H2380   0.967       .  S
C2358      O2375   1.279       .  A
C2358      O2367   1.282       .  A
C2358      C2556   1.502       .  S
O2359     Ni2378   1.944       .  S
O2359      C2365   1.273       .  A
O2360     Ni2378   1.885       .  S
O2360      C2362   1.266       .  A
Ni2361     O2364   1.922       .  S
Ni2361     O2366   1.885       .  S
C2362      O2372   1.279       .  A
C2362      C2576   1.484       .  S
O2363     Ni2379   1.913       .  S
O2363      C2369   1.270       .  A
O2364      C2369   1.275       .  A
C2365      C2629   1.490       .  S
O2366      C2368   1.264       .  A
O2367     Ni2378   1.935       .  S
C2368      O2374   1.274       .  A
C2368      C2569   1.472       .  S
C2369      C2546   1.493       .  S
H2370      O2371   0.961       .  S
O2371     Ni2379   1.913       .  S
O2371     Ni2373   1.913       .  S
O2371     Ni2378   1.896       .  S
O2372     Ni2373   1.951       .  S
Ni2373     O2377   1.928       .  S
Ni2373     O2375   1.930       .  S
O2374     Ni2379   1.943       .  S
C2376      O2377   1.272       .  A
C2376      C2659   1.470       .  S
O2381     Ni2387   1.903       .  S
O2381      C2402   1.260       .  A
O2382     Ni2405   1.898       .  S
O2382      C2391   1.267       .  A
O2383     Ni2387   1.899       .  S
O2383     Ni2405   1.899       .  S
O2383     Ni2399   1.918       .  S
O2383      H2406   0.971       .  S
C2384      O2401   1.280       .  A
C2384      O2393   1.283       .  A
C2384      C2519   1.480       .  S
O2385     Ni2404   1.952       .  S
O2385      C2391   1.277       .  A
O2386     Ni2404   1.897       .  S
O2386      C2388   1.268       .  A
Ni2387     O2390   1.913       .  S
Ni2387     O2392   1.894       .  S
C2388      O2398   1.276       .  A
C2388      C3597   1.491   1_545  S
O2389     Ni2405   1.921       .  S
O2389      C2395   1.277       .  A
O2390      C2395   1.276       .  A
C2391      C2536   1.481       .  S
O2392      C2394   1.266       .  A
O2393     Ni2404   1.932       .  S
C2394      O2400   1.270       .  A
C2394      C2599   1.489       .  S
C2395      C2529   1.474       .  S
H2396      O2397   0.965       .  S
O2397     Ni2405   1.907       .  S
O2397     Ni2399   1.900       .  S
O2397     Ni2404   1.884       .  S
O2398     Ni2399   1.941       .  S
Ni2399     O2403   1.922       .  S
Ni2399     O2401   1.929       .  S
O2400     Ni2405   1.934       .  S
C2402      O2403   1.269       .  A
C2402      C2849   1.469       .  S
O2407     Ni2413   1.892       .  S
O2407      C2428   1.257       .  A
O2408     Ni2431   1.915       .  S
O2408      C2417   1.270       .  A
O2409     Ni2413   1.898       .  S
O2409     Ni2431   1.890       .  S
O2409     Ni3433   1.918   1_545  S
O2409      H2432   0.966       .  S
C2410      O2427   1.277       .  A
C2410      O2419   1.284       .  A
C2410      C2579   1.485       .  S
O2411     Ni2430   1.955       .  S
O2411      C3425   1.279       .  A
O2412     Ni2430   1.908       .  S
O2412      C2414   1.270       .  A
Ni2413     O2416   1.908       .  S
Ni2413     O2418   1.898       .  S
C2414      O2424   1.274       .  A
C2414      C2496   1.486       .  S
O2415     Ni2431   1.935       .  S
O2415      C2421   1.284       .  A
O2416      C2421   1.275       .  A
C2417      O3419   1.278       .  A
C2417      C2539   1.502       .  S
O2418      C2420   1.266       .  A
O2419     Ni2430   1.941       .  S
C2420      O2426   1.266       .  A
C2420      C2509   1.470       .  S
C2421      C2566   1.480       .  S
H2422      O3431   0.966       .  S
O2423     Ni3439   1.915       .  S
O2423     Ni2425   1.904       .  S
O2423     Ni2430   1.887       .  S
O2423      H3430   0.966       .  S
O2424     Ni2425   1.932       .  S
Ni2425     O2429   1.927       .  S
Ni2425     O2427   1.918       .  S
Ni2425     O3417   1.921       .  S
O2426     Ni2431   1.916       .  S
C2428      O3437   1.266   1_545  A
C2428      C2639   1.467       .  S
O2429      C3436   1.268       .  A
Ni2431     O3431   1.918       .  S
O2433     Ni2439   1.894       .  S
O2434     Ni2457   1.901       .  S
O2434      C2443   1.267   1_655  A
O2435     Ni2439   1.898   1_455  S
O2435     Ni2457   1.896   1_455  S
C2436      O2453   1.285       .  A
C2436      O2445   1.286       .  A
C2436      C2499   1.487       .  S
O2437     Ni2456   1.961       .  S
O2438     Ni2456   1.905       .  S
O2438      C2440   1.269       .  A
Ni2439     O2442   1.908       .  S
Ni2439     O2444   1.897       .  S
C2440      O2450   1.280       .  A
C2440      C2559   1.502       .  S
O2441     Ni2457   1.919       .  S
O2441      C2447   1.276       .  A
O2442      C2447   1.275       .  A
C2443      C2489   1.521   1_455  S
O2444      C2446   1.265       .  A
O2445     Ni2456   1.936       .  S
C2446      O2452   1.273       .  A
C2446      C2549   1.491       .  S
C2447      C2506   1.462       .  S
H2448      O2449   0.966       .  S
O2449     Ni2451   1.905       .  S
O2449     Ni2456   1.881       .  S
O2450     Ni2451   1.956       .  S
Ni2451     O2455   1.948       .  S
Ni2451     O2453   1.931       .  S
O2452     Ni2457   1.944       .  S
C2454      O2455   1.277       .  A
C2454      C2759   1.481       .  S
O2459     Ni2465   1.905       .  S
O2459      C2480   1.263       .  A
O2460     Ni2483   1.888       .  S
O2460      C2469   1.264       .  A
O2461     Ni2465   1.917       .  S
O2461     Ni2483   1.922       .  S
O2461     Ni2477   1.940       .  S
O2461      H2484   0.978       .  S
C2462      O2479   1.281       .  A
C2462      O2471   1.284       .  A
C2462      C3617   1.512   1_545  S
O2463     Ni2482   1.957       .  S
O2463      C2469   1.278       .  A
O2464     Ni2482   1.897       .  S
O2464      C2466   1.269       .  A
Ni2465     O2468   1.918       .  S
Ni2465     O2470   1.888       .  S
C2466      O2476   1.282       .  A
O2467     Ni2483   1.941       .  S
O2467      C2473   1.276       .  A
O2468      C2473   1.270       .  A
C2469      C2486   1.487       .  S
O2470      C2472   1.265       .  A
O2471     Ni2482   1.942       .  S
C2472      O2478   1.271       .  A
C2472      C2526   1.466       .  S
C2473      C2616   1.503       .  S
H2474      O2475   0.966       .  S
O2475     Ni2483   1.907       .  S
O2475     Ni2477   1.898       .  S
O2475     Ni2482   1.894       .  S
O2476     Ni2477   1.959       .  S
Ni2477     O2481   1.925       .  S
Ni2477     O2479   1.937       .  S
O2478     Ni2483   1.932       .  S
C2480      O2481   1.273       .  A
C2480      C2969   1.473       .  S
C2485      C2486   1.411   1_455  A
C2486      C2487   1.402       .  A
C2487      C2488   1.408       .  A
C2487     Br2494   1.939       .  S
C2488      C2489   1.428       .  A
C2488     Br2493   1.920       .  S
C2490     Br2491   1.934       .  S
C2495      C2496   1.410       .  A
C2495      C2500   1.410       .  A
C2495     Br2502   1.929       .  S
C2496      C2497   1.417       .  A
C2497      C2498   1.410       .  A
C2497     Br2504   1.931       .  S
C2498      C2499   1.409       .  A
C2498     Br2503   1.924       .  S
C2499      C2500   1.413       .  A
C2500     Br2501   1.931       .  S
C2505      C2506   1.406       .  A
C2505      C2510   1.405       .  A
C2505     Br2512   1.929       .  S
C2506      C2507   1.405       .  A
C2507      C2508   1.399       .  A
C2507     Br2514   1.928       .  S
C2508      C2509   1.412       .  A
C2508     Br2513   1.930       .  S
C2509      C2510   1.411       .  A
C2510     Br2511   1.929       .  S
C2515      C2516   1.417       .  A
C2515      C2520   1.400       .  A
C2516      C2517   1.412       .  A
C2517      C2518   1.419       .  A
C2517     Br2524   1.925       .  S
C2518      C2519   1.413       .  A
C2518     Br2523   1.927       .  S
C2519      C2520   1.405       .  A
C2520     Br2521   1.933       .  S
C2525      C2526   1.406       .  A
C2525      C2530   1.393       .  A
C2525     Br2532   1.936       .  S
C2526      C2527   1.410       .  A
C2527      C2528   1.413       .  A
C2527     Br2534   1.926       .  S
C2528      C2529   1.411       .  A
C2528     Br2533   1.926       .  S
C2529      C2530   1.413       .  A
C2530     Br2531   1.931       .  S
C2535      C2536   1.404       .  A
C2535      C2540   1.410       .  A
C2535     Br2542   1.935       .  S
C2536      C2537   1.409       .  A
C2537      C2538   1.412       .  A
C2537     Br2544   1.928       .  S
C2538      C2539   1.418       .  A
C2538     Br2543   1.934   1_545  S
C2539      C2540   1.422       .  A
C2540     Br2541   1.919       .  S
C2545      C2546   1.412       .  A
C2545      C2550   1.407       .  A
C2545     Br2552   1.933       .  S
C2546      C2547   1.422       .  A
C2547      C2548   1.411       .  A
C2547     Br2554   1.931       .  S
C2548      C2549   1.407       .  A
C2548     Br2553   1.925       .  S
C2549      C2550   1.413       .  A
C2550     Br2551   1.929       .  S
C2555      C2556   1.414       .  A
C2555      C2560   1.413       .  A
C2555     Br2562   1.933       .  S
C2556      C2557   1.421       .  A
C2557      C2558   1.415       .  A
C2557     Br2564   1.932       .  S
C2558      C2559   1.412       .  A
C2558     Br2563   1.927       .  S
C2559      C2560   1.416       .  A
C2560     Br2561   1.930       .  S
C2565      C2566   1.411       .  A
C2565      C2570   1.414       .  A
C2565     Br2572   1.928       .  S
C2566      C2567   1.417       .  A
C2567      C2568   1.398       .  A
C2567     Br2574   1.936       .  S
C2568      C2569   1.407       .  A
C2568     Br2573   1.938       .  S
C2569      C2570   1.410       .  A
C2570     Br2571   1.926       .  S
C2575      C2576   1.411       .  A
C2575      C2580   1.418       .  A
C2575     Br2582   1.928       .  S
C2576      C2577   1.414       .  A
C2577      C2578   1.399       .  A
C2577     Br2584   1.936       .  S
C2578      C2579   1.410       .  A
C2578     Br2583   1.935       .  S
C2579      C2580   1.418       .  A
C2580     Br2581   1.928       .  S
C2585      C2586   1.413       .  A
C2585      C2590   1.409       .  A
C2585     Br2592   1.933       .  S
C2586      C2587   1.415       .  A
C2587      C2588   1.418       .  A
C2588      C2589   1.420       .  A
C2588     Br3601   1.931       .  S
C2589      C3396   1.500       .  S
C2589      C2590   1.412       .  A
C2590     Br2591   1.928       .  S
Br2593     C3596   1.930   1_545  S
C2595      C2596   1.412       .  A
C2595      C2600   1.410       .  A
C2595     Br2602   1.925       .  S
C2596      C2597   1.410       .  A
C2597      C2598   1.406       .  A
C2597     Br2604   1.931       .  S
C2598      C2599   1.414       .  A
C2598     Br2603   1.932       .  S
C2599      C2600   1.417       .  A
C2600     Br2601   1.933       .  S
C2605      C2606   1.413       .  A
C2605      C2610   1.425       .  A
C2605     Br2612   1.924       .  S
C2606      C2607   1.415       .  A
C2607      C2608   1.417       .  A
C2607     Br2614   1.930       .  S
C2608      C2609   1.418       .  A
C2608     Br2613   1.932       .  S
C2609      C3470   1.519       .  S
C2609      C2610   1.426       .  A
C2610     Br3619   1.933       .  S
Br2611     C3618   1.932   1_545  S
C2615      C2616   1.418       .  A
C2615      C2620   1.421       .  A
C2615     Br2622   1.931       .  S
C2616      C2617   1.413       .  A
C2617      C2618   1.414       .  A
C2617     Br2624   1.929       .  S
C2618      C2619   1.413       .  A
C2618     Br2623   1.929       .  S
C2619      C2620   1.414       .  A
C2620     Br2621   1.919       .  S
C2625      C2626   1.404       .  A
C2625      C2630   1.409       .  A
C2625     Br2632   1.929       .  S
C2626      C2627   1.412       .  A
C2627      C2628   1.412       .  A
C2627     Br2634   1.927       .  S
C2628      C2629   1.411       .  A
C2628     Br2633   1.929       .  S
C2629      C2630   1.415       .  A
C2630     Br2631   1.921       .  S
C2635      C2636   1.408       .  A
C2635      C2640   1.405   1_554  A
C2635     Br2642   1.932       .  S
C2636      C2637   1.407       .  A
C2637      C2638   1.405   1_554  A
C2637     Br2644   1.924       .  S
C2638      C2639   1.407       .  A
C2638     Br2643   1.930       .  S
C2639      C2640   1.411       .  A
C2640     Br2641   1.931       .  S
C2645      C2646   1.406       .  A
C2645      C2650   1.410       .  A
C2645     Br3660   1.929       .  S
C2646      C3295   1.485       .  S
C2646      C2647   1.413       .  A
C2647      C2648   1.412       .  A
C2647     Br2654   1.926       .  S
C2648      C2649   1.409       .  A
C2648     Br2653   1.926       .  S
C2649      C2650   1.416       .  A
C2650     Br2651   1.922       .  S
Br2652     C3653   1.929   1_545  S
C2655      C2656   1.413       .  A
C2655      C2660   1.409   1_554  A
C2655     Br2662   1.929       .  S
C2656      C2657   1.411       .  A
C2657      C2658   1.406   1_554  A
C2657     Br2664   1.933       .  S
C2658      C2659   1.409       .  A
C2658     Br2663   1.931       .  S
C2659      C2660   1.406       .  A
C2660     Br2661   1.928       .  S
C2665      C2666   1.414       .  A
C2665      C2670   1.408       .  A
C2665     Br2672   1.930       .  S
C2666      C2667   1.415       .  A
C2667      C2668   1.403       .  A
C2667     Br2674   1.934       .  S
C2668      C2669   1.406       .  A
C2668     Br2673   1.932       .  S
C2669      C2670   1.412       .  A
C2670     Br2671   1.927       .  S
C2675      C2676   1.416       .  A
C2675      C2680   1.403       .  A
C2675     Br2682   1.932       .  S
C2676      C2677   1.412       .  A
C2677      C2678   1.423       .  A
C2677     Br2684   1.925       .  S
C2678      C2679   1.418       .  A
C2678     Br2683   1.926       .  S
C2679      C2680   1.411       .  A
C2680     Br2681   1.936       .  S
C2685      C2686   1.412       .  A
C2685      C2690   1.407       .  A
C2685     Br2692   1.931       .  S
C2686      C2687   1.411       .  A
C2687      C2688   1.415       .  A
C2687     Br2694   1.927       .  S
C2688      C2689   1.419       .  A
C2689      C2690   1.413       .  A
C2690     Br2691   1.932       .  S
C2695      C2696   1.416       .  A
C2695      C2700   1.411       .  A
C2695     Br2702   1.927       .  S
C2696      C2697   1.408       .  A
C2697      C2698   1.401       .  A
C2697     Br2704   1.933       .  S
C2698      C2699   1.410       .  A
C2698     Br2703   1.925       .  S
C2699      C2700   1.411       .  A
C2700     Br2701   1.926       .  S
C2705      C2706   1.416       .  A
C2705      C2710   1.414       .  A
C2705     Br2712   1.924       .  S
C2706      C2707   1.407       .  A
C2707      C2708   1.410       .  A
C2707     Br2714   1.928       .  S
C2708      C2709   1.413       .  A
C2708     Br2713   1.925       .  S
C2709      C2710   1.407       .  A
C2710     Br2711   1.929       .  S
C2715      C2716   1.414       .  A
C2715      C2720   1.410       .  A
C2715     Br2722   1.932       .  S
C2716      C2717   1.416       .  A
C2717      C2718   1.416       .  A
C2717     Br2724   1.927       .  S
C2718      C2719   1.414       .  A
C2718     Br3731   1.927       .  S
C2719      C3318   1.496   1_545  S
C2719      C2720   1.414       .  A
C2720     Br2721   1.932       .  S
Br2723     C3726   1.927       .  S
C2725      C2726   1.417       .  A
C2725      C2730   1.413       .  A
C2725     Br2732   1.927       .  S
C2726      C2727   1.413       .  A
C2727      C2728   1.401       .  A
C2727     Br2734   1.932       .  S
C2728      C2729   1.406       .  A
C2728     Br2733   1.932       .  S
C2729      C2730   1.412       .  A
C2730     Br2731   1.929       .  S
C2735      C2736   1.419       .  A
C2735      C2740   1.416       .  A
C2735     Br2742   1.929       .  S
C2736      C3236   1.501   1_545  S
C2736      C2737   1.420       .  A
C2737      C2738   1.409       .  A
C2737     Br2744   1.936       .  S
C2738      C2739   1.411       .  A
C2739      C2740   1.411       .  A
C2740     Br2741   1.925   1_655  S
C2745      C2746   1.412       .  A
C2745      C2750   1.414       .  A
C2745     Br2752   1.927       .  S
C2746      C2747   1.413       .  A
C2747      C2748   1.405       .  A
C2747     Br2754   1.932       .  S
C2748      C2749   1.410       .  A
C2748     Br2753   1.933       .  S
C2749      C2750   1.418       .  A
C2750     Br2751   1.928       .  S
C2755      C2756   1.410       .  A
C2755      C2760   1.413   1_554  A
C2755     Br2762   1.929       .  S
C2757      C2758   1.409   1_554  A
C2757     Br2764   1.930       .  S
C2758     Br2763   1.930       .  S
C2759      C2760   1.411       .  A
C2760     Br2761   1.928       .  S
C2765      C2766   1.406       .  A
C2765      C2770   1.408       .  A
C2765     Br2772   1.923       .  S
C2766      C2767   1.412       .  A
C2767      C2768   1.408       .  A
C2767     Br2774   1.929       .  S
C2768      C2769   1.409       .  A
C2768     Br2773   1.929       .  S
C2769      C2770   1.415       .  A
C2770     Br2771   1.924       .  S
C2775      C2776   1.415       .  A
C2775      C2780   1.410       .  A
C2775     Br2782   1.931       .  S
C2776      C2777   1.415       .  A
C2777      C2778   1.417       .  A
C2777     Br2784   1.928       .  S
C2778      C2779   1.417       .  A
C2778     Br2783   1.931       .  S
C2779      C2780   1.409       .  A
C2780     Br2781   1.929       .  S
C2785      C2786   1.416       .  A
C2785      C2790   1.407       .  A
C2785     Br2792   1.930       .  S
C2786      C2787   1.414       .  A
C2787      C2788   1.421       .  A
C2787     Br2794   1.925       .  S
C2788      C2789   1.420       .  A
C2788     Br2793   1.927       .  S
C2789      C2790   1.413       .  A
C2790     Br2791   1.935       .  S
C2795      C2796   1.425       .  A
C2795      C2800   1.419       .  A
C2795     Br2802   1.932       .  S
C2796      C2797   1.413       .  A
C2797      C2798   1.409       .  A
C2797     Br2804   1.935       .  S
C2798      C2799   1.418       .  A
C2798     Br2803   1.934       .  S
C2799      C2800   1.413       .  A
C2800     Br2801   1.930       .  S
C2805      C2806   1.414       .  A
C2805      C2810   1.415       .  A
C2805     Br2812   1.926       .  S
C2806      C2807   1.408       .  A
C2807      C2808   1.416       .  A
C2807     Br2814   1.928       .  S
C2808      C2809   1.417       .  A
C2808     Br2813   1.924       .  S
C2809      C2810   1.410       .  A
C2815      C2816   1.411       .  A
C2815      C2820   1.413       .  A
C2815     Br2822   1.929       .  S
C2816      C2817   1.414       .  A
C2817      C2818   1.410       .  A
C2817     Br2824   1.926       .  S
C2818      C2819   1.406       .  A
C2818     Br2823   1.930       .  S
C2819      C2820   1.412       .  A
C2820     Br2821   1.929       .  S
C2825      C2826   1.408       .  A
C2825      C2830   1.411       .  A
C2825     Br2832   1.929       .  S
C2826      C2827   1.411       .  A
C2827      C2828   1.411       .  A
C2827     Br2834   1.930       .  S
C2828      C2829   1.410       .  A
C2828     Br2833   1.930       .  S
C2829      C2830   1.412       .  A
C2830     Br2831   1.925       .  S
C2835      C2836   1.408       .  A
C2835      C2840   1.414       .  A
C2835     Br2842   1.937       .  S
C2836      C2837   1.414       .  A
C2837      C2838   1.418       .  A
C2837     Br2844   1.920       .  S
C2838      C2839   1.423       .  A
C2838     Br2843   1.938       .  S
C2839      C2840   1.430       .  A
C2840     Br2841   1.929       .  S
C2845      C2846   1.406       .  A
C2845      C2850   1.406       .  A
C2845     Br2852   1.928       .  S
C2846      C2847   1.408       .  A
C2847      C2848   1.406       .  A
C2847     Br2854   1.931       .  S
C2848      C2849   1.410       .  A
C2848     Br2853   1.930       .  S
C2849      C2850   1.411       .  A
C2850     Br2851   1.930       .  S
C2855      C2856   1.409       .  A
C2855      C2860   1.404       .  A
C2855     Br2862   1.925       .  S
C2856      C2857   1.411       .  A
C2857      C2858   1.414       .  A
C2858      C2859   1.415       .  A
C2858     Br2863   1.926       .  S
C2859      C3117   1.486       .  S
C2859      C2860   1.412       .  A
C2860     Br2861   1.933       .  S
C2865      C2866   1.413       .  A
C2865      C2870   1.422       .  A
C2865     Br2872   1.923       .  S
C2866      C2867   1.415       .  A
C2867      C2868   1.416       .  A
C2867     Br2874   1.930       .  S
C2868      C2869   1.416       .  A
C2868     Br2873   1.932       .  S
C2869      C2870   1.424       .  A
C2870     Br2871   1.932       .  S
C2875      C2876   1.412       .  A
C2875      C2880   1.409       .  A
C2875     Br2882   1.929       .  S
C2876      C2877   1.411       .  A
C2877      C2878   1.410       .  A
C2877     Br2884   1.930       .  S
C2878      C2879   1.408       .  A
C2878     Br2883   1.930       .  S
C2879      C2880   1.407       .  A
C2880     Br2881   1.929       .  S
C2885      C2886   1.419       .  A
C2885     Br2892   1.927       .  S
C2887      C2888   1.403       .  A
C2887     Br2894   1.934       .  S
C2888      C2889   1.408       .  A
C2888     Br2893   1.936       .  S
C2889      C2890   1.413       .  A
C2890     Br2891   1.929       .  S
C2895      C2896   1.416       .  A
C2895      C2900   1.415       .  A
C2895     Br2902   1.929       .  S
C2896      C2897   1.417       .  A
C2897      C2898   1.409       .  A
C2897     Br2904   1.935       .  S
C2898      C2899   1.413       .  A
C2898     Br2903   1.934       .  S
C2899      C2900   1.415       .  A
C2900     Br2901   1.928       .  S
C2905      C3914   1.414   1_545  A
C2905      C2910   1.409       .  A
C2905     Br2912   1.923       .  S
C2906      C3913   1.417       .  A
C2906      C2907   1.410       .  A
C2907      C3916   1.412       .  A
C2907     Br2914   1.928       .  S
C2908      C3915   1.411       .  A
C2908      C2909   1.413   1_565  A
C2908     Br3921   1.927       .  S
C2909      C2910   1.405       .  A
C2910     Br2911   1.929       .  S
Br2913     C3916   1.926       .  S
C2915      C2916   1.409       .  A
C2915      C2920   1.411       .  A
C2915     Br2922   1.929       .  S
C2916      C2917   1.409       .  A
C2917      C2918   1.411       .  A
C2917     Br2924   1.926       .  S
C2918      C2919   1.410       .  A
C2918     Br2923   1.927       .  S
C2919      C2920   1.412       .  A
C2920     Br2921   1.930       .  S
C2925      C2926   1.412       .  A
C2925      C2930   1.403       .  A
C2925     Br2932   1.937       .  S
C2926      C2927   1.416       .  A
C2927      C2928   1.411       .  A
C2927     Br3942   1.931       .  S
C2928      C2929   1.416       .  A
C2928     Br2933   1.929       .  S
C2929      C2930   1.414       .  A
C2930     Br2931   1.931       .  S
Br2934     C3935   1.932       .  S
C2935      C2936   1.417       .  A
C2935      C2940   1.422       .  A
C2935     Br2942   1.926       .  S
C2936      C2937   1.423       .  A
C2937      C2938   1.399       .  A
C2937     Br2944   1.939       .  S
C2938      C2939   1.405       .  A
C2938     Br2943   1.937       .  S
C2939      C2940   1.413       .  A
C2940     Br2941   1.928       .  S
C2945      C2946   1.414       .  A
C2945      C2950   1.413       .  A
C2945     Br2952   1.934       .  S
C2946      C2947   1.412       .  A
C2947      C2948   1.416       .  A
C2947     Br2954   1.927       .  S
C2948      C2949   1.409       .  A
C2948     Br2953   1.915       .  S
C2949      C2950   1.410       .  A
C2950     Br2951   1.912       .  S
C2955      C2956   1.412       .  A
C2955      C2960   1.406       .  A
C2955     Br2962   1.924       .  S
C2956      C3142   1.492   1_545  S
C2956      C2957   1.412       .  A
C2957      C2958   1.415       .  A
C2957     Br3972   1.916   1_545  S
C2958      C2959   1.410       .  A
C2959      C2960   1.407       .  A
C2960     Br2961   1.931       .  S
Br2964     C3965   1.925       .  S
C2965      C2966   1.407       .  A
C2965      C2970   1.411       .  A
C2965     Br2972   1.928       .  S
C2966      C2967   1.414       .  A
C2967      C2968   1.408       .  A
C2967     Br2974   1.927       .  S
C2968      C2969   1.405       .  A
C2968     Br2973   1.931       .  S
C2969      C2970   1.414       .  A
C2970     Br2971   1.930       .  S
C2975      C2976   1.416       .  A
C2975      C2980   1.413       .  A
C2975     Br2982   1.922       .  S
C2976      C2977   1.415       .  A
C2977      C2978   1.411       .  A
C2977     Br2984   1.933       .  S
C2978      C2979   1.413       .  A
C2978     Br2983   1.932       .  S
C2979      C2980   1.413       .  A
C2980     Br2981   1.933       .  S
C2985      C3994   1.414       .  A
C2985      C2990   1.412       .  A
C2985     Br2992   1.928       .  S
C2986      C3993   1.413   1_545  A
C2986      C2987   1.405   1_545  A
C2987      C3996   1.398       .  A
C2987     Br2994   1.912   1_565  S
C2988      C3995   1.402       .  A
C2988      C2989   1.407       .  A
C2988     Br2993   1.920       .  S
C2989      C2990   1.407       .  A
C2990     Br2991   1.926       .  S
C2995      C2996   1.414       .  A
C2995      C3000   1.397       .  A
C2995     Br3002   1.935       .  S
C2996      C2997   1.413       .  A
C2997      C2998   1.422       .  A
C2997     Br3004   1.926       .  S
C2998      C2999   1.415       .  A
C2998     Br3003   1.926       .  S
C2999      C3000   1.408       .  A
C3000     Br3001   1.933       .  S
C3005      C3006   1.404       .  A
C3005      C3010   1.399       .  A
C3005     Br3012   1.930       .  S
C3006      C3007   1.411       .  A
C3007      C3008   1.403       .  A
C3008      C3009   1.409       .  A
C3008     Br3013   1.930       .  S
C3009      C3010   1.413       .  A
C3010     Br3011   1.927       .  S
C3015      C3020   1.412       .  A
C3015     Br3022   1.925       .  S
C3016      C3017   1.407       .  A
C3017     Br3024   1.929       .  S
C3018      C3019   1.412       .  A
C3019      C3020   1.407       .  A
C3020     Br3021   1.929       .  S
O3025     Ni3031   1.903       .  S
O3025      C3046   1.260       .  A
O3026     Ni3049   1.906       .  S
O3026      C3035   1.268       .  A
O3027     Ni3031   1.904       .  S
O3027     Ni3049   1.896       .  S
O3027     Ni3043   1.922       .  S
O3027      H3050   0.966       .  S
C3028      O3045   1.283       .  A
C3028      O3037   1.281       .  A
C3028      C4007   1.493       .  S
O3029     Ni3048   1.951       .  S
O3029      C3035   1.275       .  A
O3030     Ni3048   1.903       .  S
O3030      C3032   1.270       .  A
Ni3031     O3036   1.890       .  S
C3032      O3042   1.276       .  A
C3032      C3987   1.490       .  S
O3033      C3039   1.276       .  A
O3034      C3039   1.278       .  A
C3035      C4024   1.490       .  S
O3036      C3038   1.263       .  A
O3037     Ni3048   1.931       .  S
C3038      O3044   1.275       .  A
C3038      C3994   1.482       .  S
C3039      C4014   1.488       .  S
H3040      O3041   0.966       .  S
O3041     Ni3049   1.919       .  S
O3041     Ni3043   1.919       .  S
O3041     Ni3048   1.896       .  S
O3042     Ni3043   1.942       .  S
Ni3043     O3047   1.932       .  S
Ni3043     O3045   1.946       .  S
O3044     Ni3049   1.947       .  S
C3046      O3047   1.273       .  A
C3046      C3974   1.474       .  S
O3051     Ni3057   1.893       .  S
O3051      C3072   1.263       .  A
O3052     Ni3075   1.904       .  S
O3052      C3061   1.269       .  A
O3053     Ni3057   1.919       .  S
O3053     Ni3075   1.915       .  S
O3053     Ni3069   1.940       .  S
O3053      H3076   0.966       .  S
C3054      O3071   1.279       .  A
C3054      O3063   1.285       .  A
C3054      C3954   1.507       .  S
O3055     Ni3074   1.957       .  S
O3055      C3061   1.277       .  A
O3056     Ni3074   1.891       .  S
O3056      C3058   1.268       .  A
Ni3057     O3060   1.909       .  S
Ni3057     O3062   1.887       .  S
C3058      O3068   1.282       .  A
C3058      C3944   1.489       .  S
O3059     Ni3075   1.931       .  S
O3059      C3065   1.270       .  A
O3060      C3065   1.265       .  A
C3061      C4027   1.494       .  S
O3062      C3064   1.266       .  A
O3063     Ni3074   1.951       .  S
C3064      O3070   1.277       .  A
C3064      C3937   1.491       .  S
H3066      O3067   0.966       .  S
O3067     Ni3075   1.916       .  S
O3067     Ni3069   1.905       .  S
O3067     Ni3074   1.895       .  S
O3068     Ni3069   1.953       .  S
Ni3069     O3073   1.919       .  S
Ni3069     O3071   1.936       .  S
O3070     Ni3075   1.947       .  S
C3072      O3073   1.272       .  A
C3072      C3924   1.463       .  S
O3077     Ni3083   1.904       .  S
O3077      C3098   1.261       .  A
O3078     Ni3101   1.904       .  S
O3078      C3087   1.269       .  A
O3079     Ni3083   1.901       .  S
O3079     Ni3101   1.893       .  S
O3079     Ni3095   1.918       .  S
O3079      H3102   0.965       .  S
C3080      O3097   1.279       .  A
C3080      O3089   1.282       .  A
C3080      C3947   1.480       .  S
O3081     Ni3100   1.948       .  S
O3081      C3087   1.276       .  A
O3082     Ni3100   1.898       .  S
O3082      C3084   1.269       .  A
Ni3083     O3088   1.888       .  S
C3084      O3094   1.280       .  A
C3084      C3904   1.495       .  S
O3085      C3091   1.270       .  A
O3086      C3091   1.277       .  A
C3087      C3914   1.486       .  S
O3088      C3090   1.264       .  A
O3089     Ni3100   1.930       .  S
C3090      O3096   1.274       .  A
C3090      C3894   1.491       .  S
C3091      C3934   1.475       .  S
H3092      O3093   0.969       .  S
O3093     Ni3101   1.913       .  S
O3093     Ni3095   1.909       .  S
O3093     Ni3100   1.890       .  S
O3094     Ni3095   1.951       .  S
Ni3095     O3099   1.928       .  S
Ni3095     O3097   1.928       .  S
O3096     Ni3101   1.947       .  S
C3098      O3099   1.272       .  A
C3098      C3884   1.476       .  S
O3103     Ni3109   1.894       .  S
O3103      C3124   1.263       .  A
O3104     Ni3127   1.899       .  S
O3104      C3113   1.265       .  A
O3105     Ni3109   1.925       .  S
O3105     Ni3127   1.918       .  S
O3105     Ni3121   1.943       .  S
O3105      H3128   0.969       .  S
C3106      O3123   1.284       .  A
C3106      O3115   1.284       .  A
C3106      C3877   1.514       .  S
O3107     Ni3126   1.958       .  S
O3107      C3113   1.278       .  A
O3108     Ni3126   1.901       .  S
O3108      C3110   1.270       .  A
Ni3109     O3112   1.907       .  S
Ni3109     O3114   1.892       .  S
C3110      O3120   1.280       .  A
C3110      C4004   1.494       .  S
O3111     Ni3127   1.923       .  S
O3111      C3117   1.267       .  A
O3112      C3117   1.265       .  A
C3113      C3917   1.488       .  S
O3114      C3116   1.266       .  A
O3115     Ni3126   1.942       .  S
C3116      O3122   1.276       .  A
C3116      C4017   1.496       .  S
H3118      O3119   0.966       .  S
O3119     Ni3127   1.905       .  S
O3119     Ni3121   1.903       .  S
O3119     Ni3126   1.893       .  S
O3120     Ni3121   1.955       .  S
Ni3121     O3125   1.923       .  S
Ni3121     O3123   1.947       .  S
O3122     Ni3127   1.943       .  S
C3124      O3125   1.273       .  A
C3124      C3854   1.464       .  S
O3129     Ni3135   1.907       .  S
O3129      C3150   1.261       .  A
O3130     Ni3153   1.896       .  S
O3130      C3139   1.267       .  A
O3131     Ni3135   1.910       .  S
O3131     Ni3153   1.907       .  S
O3131     Ni3147   1.923       .  S
O3131      H3154   0.966       .  S
C3132      O3149   1.280       .  A
C3132      O3141   1.287       .  A
C3132      C3907   1.502       .  S
O3133     Ni3152   1.977       .  S
O3133      C3139   1.284       .  A
O3134     Ni3152   1.923       .  S
O3134      C3136   1.273       .  A
Ni3135     O3138   1.914       .  S
Ni3135     O3140   1.900       .  S
C3136      O3146   1.281       .  A
C3136      C3957   1.509       .  S
O3137     Ni3153   1.928       .  S
O3137      C3143   1.276       .  A
O3138      C3143   1.276       .  A
C3139      C3844   1.513       .  S
O3140      C3142   1.266       .  A
O3141     Ni3152   1.950       .  S
C3142      O3148   1.274       .  A
C3143      C3897   1.486       .  S
H3144      O3145   0.966       .  S
O3145     Ni3153   1.905       .  S
O3145     Ni3147   1.915       .  S
O3145     Ni3152   1.896       .  S
O3146     Ni3147   1.963       .  S
Ni3147     O3151   1.936       .  S
Ni3147     O3149   1.931       .  S
O3148     Ni3153   1.950       .  S
C3150      O3151   1.274       .  A
C3150      C3834   1.481       .  S
O3155     Ni3161   1.904       .  S
O3155      C3176   1.261       .  A
O3156     Ni3179   1.907       .  S
O3156      C3165   1.269       .  A
O3157     Ni3161   1.905       .  S
O3157     Ni3179   1.905       .  S
O3157     Ni3173   1.922       .  S
O3157      H3180   0.967       .  S
C3158      O3175   1.282       .  A
C3158      O3167   1.288       .  A
C3158      C3984   1.499       .  S
O3159     Ni3178   1.969       .  S
O3159      C3165   1.282       .  A
O3160     Ni3178   1.909       .  S
O3160      C3162   1.271       .  A
Ni3161     O3164   1.915       .  S
Ni3161     O3166   1.903       .  S
C3162      O3172   1.284       .  A
C3162      C3874   1.509       .  S
O3163     Ni3179   1.924       .  S
O3163      C3169   1.277       .  A
O3164      C3169   1.275       .  A
C3165      C3847   1.530       .  S
O3166      C3168   1.267       .  A
O3167     Ni3178   1.946       .  S
C3168      O3174   1.274       .  A
C3169      C3997   1.470       .  S
H3170      O3171   0.966       .  S
O3171     Ni3179   1.902       .  S
O3171     Ni3173   1.905       .  S
O3171     Ni3178   1.882       .  S
O3172     Ni3173   1.968       .  S
Ni3173     O3177   1.940       .  S
Ni3173     O3175   1.932       .  S
O3174     Ni3179   1.949       .  S
C3176      O3177   1.275       .  A
C3176      C3824   1.476       .  S
O3181     Ni3187   1.898       .  S
O3181      C3202   1.259       .  A
O3182     Ni3205   1.888       .  S
O3182      C3191   1.263       .  A
O3183     Ni3187   1.898       .  S
O3183     Ni3205   1.891       .  S
O3183      H3206   0.966       .  S
C3184      O3201   1.284       .  A
C3184      O3193   1.286       .  A
C3184      C3784   1.497       .  S
O3185     Ni3204   1.968       .  S
O3186     Ni3204   1.903       .  S
O3186      C3188   1.270       .  A
Ni3187     O3190   1.916       .  S
Ni3187     O3192   1.906       .  S
C3188      O3198   1.284       .  A
C3188      C3807   1.509       .  S
O3189     Ni3205   1.921       .  S
O3189      C3195   1.274       .  A
O3190      C3195   1.277       .  A
C3191      C3817   1.482       .  S
O3192      C3194   1.267       .  A
O3193     Ni3204   1.941       .  S
C3194      O3200   1.270       .  A
C3194      C3794   1.490       .  S
C3195      C3777   1.487       .  S
O3197     Ni3199   1.907       .  S
O3197     Ni3204   1.886       .  S
O3198     Ni3199   1.966       .  S
Ni3199     O3203   1.952       .  S
Ni3199     O3201   1.934       .  S
O3200     Ni3205   1.937       .  S
C3202      C3764   1.479       .  S
O3207     Ni3213   1.898       .  S
O3207      C3228   1.257       .  A
O3208     Ni3231   1.912       .  S
O3208      C3217   1.274       .  A
O3209     Ni3213   1.906       .  S
O3209     Ni3231   1.896       .  S
O3209     Ni3225   1.924       .  S
O3209      H3232   0.967       .  S
C3210      O3227   1.276       .  A
C3210      O3219   1.285       .  A
C3210      C3724   1.502       .  S
O3211     Ni3230   1.957       .  S
O3211      C3217   1.282       .  A
O3212     Ni3230   1.902       .  S
O3212      C3214   1.270       .  A
Ni3213     O3216   1.917       .  S
Ni3213     O3218   1.894       .  S
C3214      O3224   1.280       .  A
O3215     Ni3231   1.931       .  S
O3215      C3221   1.280       .  A
O3216      C3221   1.275       .  A
C3217      C3814   1.496       .  S
O3218      C3220   1.267       .  A
O3219     Ni3230   1.945       .  S
C3220      O3226   1.271       .  A
C3220      C3754   1.489       .  S
C3221      C3737   1.476       .  S
H3222      O3223   0.965       .  S
O3223     Ni3231   1.918       .  S
O3223     Ni3225   1.899       .  S
O3223     Ni3230   1.884       .  S
O3224     Ni3225   1.954       .  S
Ni3225     O3229   1.924       .  S
Ni3225     O3227   1.918       .  S
O3226     Ni3231   1.936       .  S
C3228      O3229   1.268       .  A
C3228      C3927   1.470       .  S
O3233     Ni3239   1.905       .  S
O3233      C3254   1.262       .  A
O3234     Ni3257   1.894       .  S
O3234      C3243   1.266       .  A
O3235     Ni3239   1.907       .  S
O3235     Ni3257   1.901       .  S
O3235     Ni3251   1.929       .  S
O3235      H3258   0.967       .  S
C3236      O3253   1.287       .  A
C3236      O3245   1.283       .  A
O3237     Ni3256   1.954       .  S
O3237      C3243   1.277       .  A
O3238     Ni3256   1.896       .  S
O3238      C3240   1.267       .  A
Ni3239     O3242   1.920       .  S
Ni3239     O3244   1.898       .  S
C3240      O3250   1.277       .  A
C3240      C3694   1.498       .  S
O3241     Ni3257   1.914       .  S
O3241      C3247   1.270       .  A
O3242      C3247   1.275       .  A
C3243      C3717   1.483       .  S
O3244      C3246   1.266       .  A
O3245     Ni3256   1.927       .  S
C3246      O3252   1.275       .  A
C3246      C3707   1.497       .  S
C3247      C3757   1.487       .  S
H3248      O3249   0.966       .  S
O3249     Ni3257   1.900       .  S
O3249     Ni3251   1.901       .  S
O3249     Ni3256   1.890       .  S
O3250     Ni3251   1.950       .  S
Ni3251     O3255   1.938       .  S
Ni3251     O3253   1.943       .  S
O3252     Ni3257   1.945       .  S
C3254      O3255   1.275       .  A
C3254      C3837   1.474       .  S
O3259     Ni3265   1.898       .  S
O3259      C3280   1.260       .  A
O3260     Ni3283   1.902       .  S
O3260      C3269   1.268       .  A
O3261     Ni3265   1.904       .  S
O3261     Ni3283   1.895       .  S
O3261     Ni3277   1.926       .  S
O3261      H3284   0.967       .  S
C3262      O3279   1.285       .  A
C3262      O3271   1.284       .  A
C3262      C3687   1.494       .  S
O3263     Ni3282   1.955       .  S
O3263      C3269   1.277       .  A
O3264     Ni3282   1.896       .  S
O3264      C3266   1.268       .  A
Ni3265     O3268   1.917       .  S
Ni3265     O3270   1.896       .  S
C3266      O3276   1.279       .  A
C3266      C3787   1.490       .  S
O3267     Ni3283   1.914       .  S
O3267      C3273   1.272       .  A
O3268      C3273   1.276       .  A
C3269      C3714   1.492       .  S
O3270      C3272   1.266       .  A
O3271     Ni3282   1.936       .  S
C3272      O3278   1.271       .  A
C3272      C3774   1.482       .  S
C3273      C3677   1.481       .  S
H3274      O3275   0.966       .  S
O3275     Ni3283   1.913       .  S
O3275     Ni3277   1.910       .  S
O3275     Ni3282   1.888       .  S
O3276     Ni3277   1.946       .  S
Ni3277     O3281   1.940       .  S
Ni3277     O3279   1.944       .  S
O3278     Ni3283   1.935       .  S
C3280      O3281   1.276       .  A
C3280      C3664   1.477       .  S
O3285     Ni3291   1.903       .  S
O3286     Ni3309   1.898       .  S
O3287     Ni3291   1.919       .  S
O3287     Ni3309   1.912       .  S
C3288      O3305   1.284       .  A
C3288      O3297   1.285       .  A
C3288      C3804   1.512       .  S
O3289     Ni3308   1.954       .  S
O3289      C3295   1.278       .  A
O3290     Ni3308   1.898       .  S
O3290      C3292   1.270       .  A
Ni3291     O3294   1.916       .  S
Ni3291     O3296   1.896       .  S
C3292      O3302   1.286       .  A
C3292      C3684   1.501       .  S
O3293     Ni3309   1.919       .  S
O3293      C3299   1.268       .  A
O3294      C3299   1.267       .  A
O3296      C3298   1.269       .  A
O3297     Ni3308   1.942       .  S
C3298      O3304   1.275       .  A
C3298      C3674   1.495       .  S
C3299      C3797   1.480       .  S
H3300      O3301   0.966       .  S
O3301     Ni3303   1.902       .  S
O3301     Ni3308   1.886       .  S
O3302     Ni3303   1.971       .  S
Ni3303     O3307   1.935       .  S
Ni3303     O3305   1.943       .  S
O3304     Ni3309   1.949       .  S
C3306      O3307   1.276       .  A
C3306      C3644   1.477       .  S
O3311     Ni3317   1.913       .  S
O3311      C3332   1.262       .  A
O3312     Ni3335   1.893       .  S
O3312      C3321   1.265       .  A
O3313     Ni3317   1.903       .  S
O3313     Ni3335   1.900       .  S
O3313     Ni3329   1.914       .  S
O3313      H3336   0.966       .  S
C3314      O3331   1.276       .  A
C3314      O3323   1.282       .  A
O3315     Ni3334   1.950       .  S
O3315      C3321   1.277       .  A
O3316     Ni3334   1.907       .  S
O3316      C3318   1.269       .  A
Ni3317     O3320   1.933       .  S
Ni3317     O3322   1.888       .  S
C3318      O3328   1.277       .  A
O3319     Ni3335   1.918       .  S
O3319      C3325   1.272       .  A
O3320      C3325   1.279       .  A
C3321      C3657   1.478       .  S
O3322      C3324   1.261       .  A
O3323     Ni3334   1.936       .  S
C3324      O3330   1.276       .  A
C3324      C3734   1.475       .  S
C3325      C3704   1.496       .  S
H3326      O3327   0.966       .  S
O3327     Ni3335   1.910       .  S
O3327     Ni3329   1.903       .  S
O3327     Ni3334   1.901       .  S
O3328     Ni3329   1.946       .  S
Ni3329     O3333   1.918       .  S
Ni3329     O3331   1.923       .  S
O3330     Ni3335   1.951       .  S
C3332      O3333   1.269       .  A
C3332      C3887   1.463       .  S
O3337     Ni3343   1.906       .  S
O3337      C3358   1.262       .  A
O3338     Ni3361   1.898       .  S
O3338      C3347   1.269       .  A
O3339     Ni3343   1.904       .  S
O3339     Ni3361   1.896       .  S
O3339     Ni3355   1.916       .  S
O3339      H3362   0.967       .  S
C3340      O3357   1.280       .  A
C3340      O3349   1.282       .  A
O3341     Ni3360   1.948       .  S
O3341      C3347   1.277       .  A
O3342     Ni3360   1.901       .  S
O3342      C3344   1.268       .  A
Ni3343     O3346   1.917       .  S
Ni3343     O3348   1.904       .  S
C3344      O3354   1.284       .  A
C3344      C3614   1.506       .  S
O3345     Ni3361   1.919       .  S
O3345      C3351   1.275       .  A
O3346      C3351   1.277       .  A
C3347      C3634   1.480       .  S
O3348      C3350   1.266       .  A
O3349     Ni3360   1.929       .  S
C3350      O3356   1.277       .  A
C3350      C3627   1.503       .  S
C3351      C3604   1.483       .  S
H3352      O3353   0.966       .  S
O3353     Ni3361   1.906       .  S
O3353     Ni3355   1.906       .  S
O3353     Ni3360   1.893       .  S
O3354     Ni3355   1.970       .  S
Ni3355     O3359   1.936       .  S
Ni3355     O3357   1.923       .  S
O3356     Ni3361   1.960       .  S
C3358      O3359   1.274       .  A
C3358      C3827   1.480       .  S
O3363     Ni3369   1.905       .  S
O3363      C3384   1.265       .  A
O3364     Ni3387   1.900       .  S
O3364      C3373   1.267       .  A
O3365     Ni3369   1.913       .  S
O3365     Ni3387   1.914       .  S
O3365     Ni3381   1.927       .  S
O3365      H3388   0.967       .  S
C3366      O3383   1.279       .  A
C3366      O3375   1.280       .  A
C3366      C3564   1.507       .  S
O3367     Ni3386   1.940       .  S
O3367      C3373   1.271       .  A
O3368     Ni3386   1.885       .  S
O3368      C3370   1.265       .  A
Ni3369     O3372   1.919       .  S
Ni3369     O3374   1.897       .  S
C3370      O3380   1.283       .  A
C3370      C3584   1.491       .  S
O3371     Ni3387   1.920       .  S
O3371      C3377   1.269       .  A
O3372      C3377   1.271       .  A
C3373      C3637   1.481       .  S
O3374      C3376   1.266       .  A
O3375     Ni3386   1.932       .  S
C3376      O3382   1.278       .  A
C3376      C3577   1.480       .  S
C3377      C3554   1.491       .  S
H3378      O3379   0.962       .  S
O3379     Ni3387   1.913       .  S
O3379     Ni3381   1.908       .  S
O3379     Ni3386   1.901       .  S
O3380     Ni3381   1.961       .  S
Ni3381     O3385   1.930       .  S
Ni3381     O3383   1.931       .  S
O3382     Ni3387   1.956       .  S
C3384      O3385   1.275       .  A
C3384      C3667   1.476       .  S
O3389     Ni3395   1.905       .  S
O3389      C3410   1.259       .  A
O3390     Ni3413   1.901       .  S
O3390      C3399   1.268       .  A
O3391     Ni3395   1.906       .  S
O3391     Ni3413   1.901       .  S
O3391     Ni3407   1.932       .  S
O3391      H3414   0.971       .  S
C3392      O3409   1.282       .  A
C3392      O3401   1.283       .  A
C3392      C3527   1.481       .  S
O3393     Ni3412   1.956       .  S
O3393      C3399   1.280       .  A
O3394     Ni3412   1.907       .  S
O3394      C3396   1.271       .  A
Ni3395     O3398   1.921       .  S
Ni3395     O3400   1.889       .  S
C3396      O3406   1.276       .  A
O3397     Ni3413   1.926       .  S
O3397      C3403   1.277       .  A
O3398      C3403   1.277       .  A
C3399      C3544   1.490       .  S
O3400      C3402   1.265       .  A
O3401     Ni3412   1.932       .  S
C3402      O3408   1.270       .  A
C3402      C3607   1.484       .  S
C3403      C3537   1.480       .  S
H3404      O3405   0.966       .  S
O3405     Ni3413   1.906       .  S
O3405     Ni3407   1.898       .  S
O3405     Ni3412   1.883       .  S
O3406     Ni3407   1.943       .  S
Ni3407     O3411   1.922       .  S
Ni3407     O3409   1.932       .  S
O3408     Ni3413   1.929       .  S
C3410      O3411   1.268       .  A
C3410      C3857   1.470       .  S
O3415     Ni3421   1.897       .  S
O3415      C3436   1.259       .  A
O3416     Ni3439   1.918       .  S
O3416      C3425   1.269       .  A
O3417     Ni3421   1.905       .  S
O3417     Ni3439   1.902       .  S
O3417      H3440   0.966       .  S
C3418      O3435   1.279       .  A
C3418      O3427   1.283       .  A
C3418      C3587   1.487       .  S
O3419     Ni3438   1.948   1_545  S
O3420     Ni3438   1.904       .  S
O3420      C3422   1.270       .  A
Ni3421     O3424   1.912       .  S
Ni3421     O3426   1.902       .  S
C3422      O3432   1.272       .  A
C3422      C3504   1.480       .  S
O3423     Ni3439   1.937       .  S
O3423      C3429   1.282       .  A
O3424      C3429   1.275       .  A
C3425      C3547   1.513       .  S
O3426      C3428   1.267       .  A
O3427     Ni3438   1.937       .  S
C3428      O3434   1.265       .  A
C3428      C3517   1.472       .  S
C3429      C3574   1.487       .  S
O3431     Ni3433   1.902   1_545  S
O3431     Ni3438   1.887   1_545  S
O3432     Ni3433   1.926       .  S
Ni3433     O3437   1.921       .  S
Ni3433     O3435   1.925       .  S
O3434     Ni3439   1.914       .  S
C3436      C3647   1.486       .  S
O3441     Ni3447   1.908       .  S
O3442     Ni3465   1.903       .  S
O3442      C3451   1.267   1_655  A
O3443     Ni3447   1.900   1_455  S
O3443     Ni3465   1.902   1_455  S
C3444      O3461   1.283       .  A
C3444      O3453   1.285       .  A
C3444      C3507   1.483       .  S
O3445     Ni3464   1.964       .  S
O3446     Ni3464   1.908       .  S
O3446      C3448   1.270       .  A
Ni3447     O3450   1.918       .  S
Ni3447     O3452   1.908       .  S
C3448      O3458   1.280       .  A
C3448      C3567   1.503       .  S
O3449     Ni3465   1.907       .  S
O3449      C3455   1.272       .  A
O3450      C3455   1.276       .  A
C3451      C3497   1.524   1_455  S
O3452      C3454   1.268       .  A
O3453     Ni3464   1.935       .  S
C3454      O3460   1.277       .  A
C3454      C3557   1.508       .  S
C3455      C3514   1.462       .  S
H3456      O3457   0.966       .  S
O3457     Ni3459   1.909       .  S
O3457     Ni3464   1.888       .  S
O3458     Ni3459   1.956       .  S
Ni3459     O3463   1.947       .  S
Ni3459     O3461   1.926       .  S
O3460     Ni3465   1.958       .  S
C3462      O3463   1.277       .  A
C3462      C3767   1.488       .  S
O3467     Ni3473   1.911       .  S
O3467      C3488   1.266       .  A
O3468     Ni3491   1.894       .  S
O3468      C3477   1.266       .  A
O3469     Ni3473   1.915       .  S
O3469     Ni3491   1.917       .  S
O3469     Ni3485   1.936       .  S
O3469      H3492   0.979       .  S
C3470      O3487   1.280       .  A
C3470      O3479   1.283       .  A
O3471     Ni3490   1.956       .  S
O3471      C3477   1.276       .  A
O3472     Ni3490   1.893       .  S
O3472      C3474   1.268       .  A
Ni3473     O3476   1.920       .  S
Ni3473     O3478   1.898       .  S
C3474      O3484   1.277       .  A
O3475     Ni3491   1.936       .  S
O3475      C3481   1.274       .  A
O3476      C3481   1.270       .  A
C3477      C3494   1.494       .  S
O3478      C3480   1.268       .  A
O3479     Ni3490   1.947       .  S
C3480      O3486   1.276       .  A
C3480      C3534   1.474       .  S
C3481      C3624   1.496       .  S
H3482      O3483   0.956       .  S
O3483     Ni3491   1.915       .  S
O3483     Ni3485   1.905       .  S
O3483     Ni3490   1.906       .  S
O3484     Ni3485   1.941       .  S
Ni3485     O3489   1.917       .  S
Ni3485     O3487   1.939       .  S
O3486     Ni3491   1.947       .  S
C3488      O3489   1.270       .  A
C3488      C3977   1.469       .  S
C3493      C3494   1.413   1_455  A
C3494      C3495   1.402       .  A
C3495      C3496   1.407       .  A
C3495     Br3502   1.938       .  S
C3496      C3497   1.425       .  A
C3496     Br3501   1.916       .  S
C3498     Br3499   1.933       .  S
C3503      C3504   1.409       .  A
C3503      C3508   1.407       .  A
C3503     Br3510   1.930       .  S
C3504      C3505   1.415       .  A
C3505      C3506   1.408       .  A
C3505     Br3512   1.932       .  S
C3506      C3507   1.409       .  A
C3506     Br3511   1.922       .  S
C3507      C3508   1.412       .  A
C3508     Br3509   1.931       .  S
C3513      C3514   1.406       .  A
C3513      C3518   1.405       .  A
C3513     Br3520   1.927       .  S
C3514      C3515   1.404       .  A
C3515      C3516   1.398       .  A
C3515     Br3522   1.927       .  S
C3516      C3517   1.411       .  A
C3516     Br3521   1.927       .  S
C3517      C3518   1.411       .  A
C3518     Br3519   1.928       .  S
C3523      C3524   1.415       .  A
C3523      C3528   1.401       .  A
C3524      C3525   1.411       .  A
C3525      C3526   1.417       .  A
C3525     Br3532   1.927       .  S
C3526      C3527   1.413       .  A
C3526     Br3531   1.927       .  S
C3527      C3528   1.408       .  A
C3528     Br3529   1.932       .  S
C3533      C3534   1.406       .  A
C3533      C3538   1.398       .  A
C3533     Br3540   1.932       .  S
C3534      C3535   1.411       .  A
C3535      C3536   1.415       .  A
C3535     Br3542   1.925       .  S
C3536      C3537   1.411       .  A
C3536     Br3541   1.926       .  S
C3537      C3538   1.413       .  A
C3538     Br3539   1.929       .  S
C3543      C3544   1.406       .  A
C3543      C3548   1.414       .  A
C3543     Br3550   1.935       .  S
C3544      C3545   1.409       .  A
C3545      C3546   1.414       .  A
C3545     Br3552   1.929       .  S
C3546      C3547   1.422       .  A
C3546     Br3551   1.934       .  S
C3547      C3548   1.426       .  A
C3548     Br3549   1.924       .  S
C3553      C3554   1.407       .  A
C3553      C3558   1.408       .  A
C3553     Br3560   1.933       .  S
C3554      C3555   1.415       .  A
C3555      C3556   1.417       .  A
C3555     Br3562   1.929       .  S
C3556      C3557   1.414       .  A
C3556     Br3561   1.916       .  S
C3557      C3558   1.417       .  A
C3558     Br3559   1.921       .  S
C3563      C3564   1.418       .  A
C3563      C3568   1.413       .  A
C3563     Br3570   1.934       .  S
C3564      C3565   1.424       .  A
C3565      C3566   1.417       .  A
C3565     Br3572   1.934       .  S
C3566      C3567   1.411       .  A
C3566     Br3571   1.927       .  S
C3567      C3568   1.411       .  A
C3568     Br3569   1.927       .  S
C3573      C3574   1.413       .  A
C3573      C3578   1.418       .  A
C3573     Br3580   1.928       .  S
C3574      C3575   1.416       .  A
C3575      C3576   1.401       .  A
C3575     Br3582   1.934       .  S
C3576      C3577   1.406       .  A
C3576     Br3581   1.933       .  S
C3577      C3578   1.412       .  A
C3578     Br3579   1.925       .  S
C3583      C3584   1.411       .  A
C3583      C3588   1.418       .  A
C3583     Br3590   1.926       .  S
C3584      C3585   1.419       .  A
C3585      C3586   1.405       .  A
C3585     Br3592   1.937       .  S
C3586      C3587   1.410       .  A
C3586     Br3591   1.936       .  S
C3587      C3588   1.415       .  A
C3588     Br3589   1.928       .  S
C3593      C3594   1.417       .  A
C3593      C3598   1.406       .  A
C3593     Br3600   1.937       .  S
C3594      C3595   1.417       .  A
C3595      C3596   1.414       .  A
C3596      C3597   1.416       .  A
C3597      C3598   1.411       .  A
C3598     Br3599   1.931       .  S
C3603      C3604   1.413       .  A
C3603      C3608   1.409       .  A
C3603     Br3610   1.927       .  S
C3604      C3605   1.411       .  A
C3605      C3606   1.403       .  A
C3605     Br3612   1.934       .  S
C3606      C3607   1.414       .  A
C3606     Br3611   1.935       .  S
C3607      C3608   1.416       .  A
C3608     Br3609   1.932       .  S
C3613      C3614   1.414       .  A
C3613      C3618   1.422       .  A
C3613     Br3620   1.926       .  S
C3614      C3615   1.416       .  A
C3615      C3616   1.413       .  A
C3615     Br3622   1.932       .  S
C3616      C3617   1.416       .  A
C3616     Br3621   1.934       .  S
C3617      C3618   1.424       .  A
C3623      C3624   1.414       .  A
C3623      C3628   1.418       .  A
C3623     Br3630   1.924       .  S
C3624      C3625   1.410       .  A
C3625      C3626   1.412       .  A
C3625     Br3632   1.930       .  S
C3626      C3627   1.416       .  A
C3626     Br3631   1.927       .  S
C3627      C3628   1.413       .  A
C3628     Br3629   1.920       .  S
C3633      C3634   1.407       .  A
C3633      C3638   1.409       .  A
C3633     Br3640   1.929       .  S
C3634      C3635   1.411       .  A
C3635      C3636   1.408       .  A
C3635     Br3642   1.925       .  S
C3636      C3637   1.408       .  A
C3636     Br3641   1.929       .  S
C3637      C3638   1.413       .  A
C3638     Br3639   1.924       .  S
C3643      C3644   1.413       .  A
C3643      C3648   1.409   1_554  A
C3643     Br3650   1.934       .  S
C3644      C3645   1.406       .  A
C3645      C3646   1.410   1_554  A
C3645     Br3652   1.927       .  S
C3646      C3647   1.417       .  A
C3646     Br3651   1.933       .  S
C3647      C3648   1.414       .  A
C3648     Br3649   1.934       .  S
C3653      C3654   1.409       .  A
C3653      C3658   1.411       .  A
C3654      C3655   1.413       .  A
C3655      C3656   1.405       .  A
C3655     Br3662   1.921       .  S
C3656      C3657   1.404       .  A
C3656     Br3661   1.930       .  S
C3657      C3658   1.414       .  A
C3658     Br3659   1.927   1_565  S
C3663      C3664   1.405       .  A
C3663      C3668   1.409   1_554  A
C3663     Br3670   1.928       .  S
C3664      C3665   1.414       .  A
C3665      C3666   1.410   1_554  A
C3665     Br3672   1.930       .  S
C3666      C3667   1.408       .  A
C3666     Br3671   1.931       .  S
C3667      C3668   1.414       .  A
C3668     Br3669   1.930       .  S
C3673      C3674   1.419       .  A
C3673      C3678   1.411       .  A
C3673     Br3680   1.931       .  S
C3674      C3675   1.416       .  A
C3675      C3676   1.403       .  A
C3675     Br3682   1.928       .  S
C3676      C3677   1.405       .  A
C3676     Br3681   1.932       .  S
C3677      C3678   1.412       .  A
C3678     Br3679   1.928       .  S
C3683      C3684   1.417       .  A
C3683      C3688   1.403       .  A
C3683     Br3690   1.928       .  S
C3684      C3685   1.414       .  A
C3685      C3686   1.425       .  A
C3685     Br3692   1.924       .  S
C3686      C3687   1.416       .  A
C3686     Br3691   1.925       .  S
C3687      C3688   1.409       .  A
C3688     Br3689   1.935       .  S
C3693      C3694   1.415       .  A
C3693      C3698   1.409       .  A
C3693     Br3700   1.934       .  S
C3694      C3695   1.414       .  A
C3695      C3696   1.416       .  A
C3695     Br3702   1.931       .  S
C3696      C3697   1.422       .  A
C3697      C3698   1.414       .  A
C3698     Br3699   1.934       .  S
C3703      C3704   1.420       .  A
C3703      C3708   1.416       .  A
C3703     Br3710   1.933       .  S
C3704      C3705   1.408       .  A
C3705      C3706   1.407       .  A
C3705     Br3712   1.933       .  S
C3706      C3707   1.419       .  A
C3706     Br3711   1.933       .  S
C3707      C3708   1.415       .  A
C3708     Br3709   1.931       .  S
C3713      C3714   1.415       .  A
C3713      C3718   1.409       .  A
C3713     Br3720   1.921       .  S
C3714      C3715   1.410       .  A
C3715      C3716   1.413       .  A
C3715     Br3722   1.928       .  S
C3716      C3717   1.413       .  A
C3716     Br3721   1.927       .  S
C3717      C3718   1.404       .  A
C3718     Br3719   1.930       .  S
C3723      C3724   1.416       .  A
C3723      C3728   1.410       .  A
C3723     Br3730   1.933       .  S
C3724      C3725   1.423       .  A
C3725      C3726   1.414       .  A
C3725     Br3732   1.931       .  S
C3726      C3727   1.409       .  A
C3727      C3728   1.412       .  A
C3728     Br3729   1.932       .  S
C3733      C3734   1.401       .  A
C3733      C3738   1.394       .  A
C3733     Br3740   1.914       .  S
C3734      C3735   1.414       .  A
C3735      C3736   1.418       .  A
C3735     Br3742   1.926       .  S
C3736      C3737   1.410       .  A
C3736     Br3741   1.925       .  S
C3737      C3738   1.405       .  A
C3738     Br3739   1.920       .  S
C3743      C3744   1.418       .  A
C3743      C3748   1.417       .  A
C3743     Br3750   1.928       .  S
C3744      C3745   1.416       .  A
C3745      C3746   1.410       .  A
C3745     Br3752   1.933       .  S
C3746      C3747   1.411       .  A
C3747      C3748   1.414       .  A
C3748     Br3749   1.925   1_655  S
C3753      C3754   1.415       .  A
C3753      C3758   1.414       .  A
C3753     Br3760   1.934       .  S
C3754      C3755   1.413       .  A
C3755      C3756   1.403       .  A
C3755     Br3762   1.932       .  S
C3756      C3757   1.409       .  A
C3756     Br3761   1.933       .  S
C3757      C3758   1.418       .  A
C3758     Br3759   1.931       .  S
C3763      C3764   1.413       .  A
C3763      C3768   1.413   1_554  A
C3763     Br3770   1.930       .  S
C3765      C3766   1.411   1_554  A
C3765     Br3772   1.929   1_455  S
C3766     Br3771   1.925       .  S
C3767      C3768   1.410       .  A
C3768     Br3769   1.927       .  S
C3773      C3774   1.409       .  A
C3773      C3778   1.410       .  A
C3773     Br3780   1.925       .  S
C3774      C3775   1.411       .  A
C3775      C3776   1.404       .  A
C3775     Br3782   1.932       .  S
C3776      C3777   1.411       .  A
C3776     Br3781   1.931       .  S
C3777      C3778   1.418       .  A
C3778     Br3779   1.930       .  S
C3783      C3784   1.416       .  A
C3783      C3788   1.410       .  A
C3783     Br3790   1.934       .  S
C3784      C3785   1.415       .  A
C3785      C3786   1.414       .  A
C3785     Br3792   1.925       .  S
C3786      C3787   1.415       .  A
C3786     Br3791   1.932       .  S
C3787      C3788   1.412       .  A
C3788     Br3789   1.933       .  S
C3793      C3794   1.414       .  A
C3793      C3798   1.402       .  A
C3793     Br3800   1.927       .  S
C3794      C3795   1.415       .  A
C3795      C3796   1.415       .  A
C3795     Br3802   1.926       .  S
C3796      C3797   1.411       .  A
C3796     Br3801   1.925       .  S
C3797      C3798   1.407       .  A
C3798     Br3799   1.935       .  S
C3803      C3804   1.422       .  A
C3803      C3808   1.420       .  A
C3803     Br3810   1.931       .  S
C3804      C3805   1.415       .  A
C3805      C3806   1.414       .  A
C3805     Br3812   1.933       .  S
C3806      C3807   1.419       .  A
C3806     Br3811   1.934       .  S
C3807      C3808   1.415       .  A
C3808     Br3809   1.927       .  S
C3813      C3814   1.417       .  A
C3813      C3818   1.410       .  A
C3813     Br3820   1.916       .  S
C3814      C3815   1.412       .  A
C3815      C3816   1.414       .  A
C3815     Br3822   1.929       .  S
C3816      C3817   1.412       .  A
C3816     Br3821   1.928       .  S
C3817      C3818   1.403       .  A
C3823      C3824   1.411       .  A
C3823      C3828   1.412       .  A
C3823     Br3830   1.929       .  S
C3824      C3825   1.408       .  A
C3825      C3826   1.408       .  A
C3825     Br3832   1.929       .  S
C3826      C3827   1.412       .  A
C3826     Br3831   1.928       .  S
C3827      C3828   1.411       .  A
C3828     Br3829   1.930       .  S
C3833      C3834   1.413       .  A
C3833      C3838   1.409       .  A
C3833     Br3840   1.925       .  S
C3834      C3835   1.410       .  A
C3835      C3836   1.410       .  A
C3835     Br3842   1.931       .  S
C3836      C3837   1.411       .  A
C3836     Br3841   1.930       .  S
C3837      C3838   1.405       .  A
C3838     Br3839   1.929       .  S
C3843      C3844   1.411       .  A
C3843      C3848   1.414       .  A
C3843     Br3850   1.937       .  S
C3844      C3845   1.415       .  A
C3845      C3846   1.422       .  A
C3845     Br3852   1.923       .  S
C3846      C3847   1.426       .  A
C3846     Br3851   1.934       .  S
C3847      C3848   1.427       .  A
C3848     Br3849   1.925       .  S
C3853      C3854   1.406       .  A
C3853      C3858   1.407       .  A
C3853     Br3860   1.928       .  S
C3854      C3855   1.411       .  A
C3855      C3856   1.404       .  A
C3855     Br3862   1.932       .  S
C3856      C3857   1.409       .  A
C3856     Br3861   1.933       .  S
C3857      C3858   1.411       .  A
C3858     Br3859   1.928       .  S
C3863      C3864   1.414       .  A
C3863      C3868   1.408       .  A
C3863     Br3870   1.931       .  S
C3864      C3865   1.412       .  A
C3865      C3866   1.417       .  A
C3866      C3867   1.420       .  A
C3866     Br3871   1.928       .  S
C3867      C3868   1.412       .  A
C3868     Br3869   1.932       .  S
C3873      C3874   1.413       .  A
C3873      C3878   1.422       .  A
C3873     Br3880   1.923       .  S
C3874      C3875   1.414       .  A
C3875      C3876   1.416       .  A
C3875     Br3882   1.929       .  S
C3876      C3877   1.417       .  A
C3876     Br3881   1.932       .  S
C3877      C3878   1.422       .  A
C3878     Br3879   1.931       .  S
C3883      C3884   1.414       .  A
C3883      C3888   1.408       .  A
C3883     Br3890   1.928       .  S
C3884      C3885   1.411       .  A
C3885      C3886   1.405       .  A
C3885     Br3892   1.930       .  S
C3886      C3887   1.406       .  A
C3886     Br3891   1.932       .  S
C3887      C3888   1.406       .  A
C3888     Br3889   1.930       .  S
C3893      C3894   1.414       .  A
C3893     Br3900   1.926       .  S
C3895      C3896   1.403       .  A
C3895     Br3902   1.930       .  S
C3896      C3897   1.406       .  A
C3896     Br3901   1.933       .  S
C3897      C3898   1.412       .  A
C3898     Br3899   1.922       .  S
C3903      C3904   1.416       .  A
C3903      C3908   1.416       .  A
C3903     Br3910   1.930       .  S
C3904      C3905   1.415       .  A
C3905      C3906   1.410       .  A
C3905     Br3912   1.932       .  S
C3906      C3907   1.412       .  A
C3906     Br3911   1.932       .  S
C3907      C3908   1.414       .  A
C3908     Br3909   1.923       .  S
C3913      C3918   1.413       .  A
C3913     Br3920   1.922       .  S
C3914      C3915   1.409       .  A
C3915     Br3922   1.929       .  S
C3916      C3917   1.412       .  A
C3917      C3918   1.407       .  A
C3918     Br3919   1.929       .  S
C3923      C3924   1.409       .  A
C3923      C3928   1.403       .  A
C3923     Br3930   1.933       .  S
C3924      C3925   1.406       .  A
C3925      C3926   1.408       .  A
C3925     Br3932   1.929       .  S
C3926      C3927   1.413       .  A
C3926     Br3931   1.929       .  S
C3927      C3928   1.409       .  A
C3928     Br3929   1.932       .  S
C3933      C3934   1.405       .  A
C3933      C3938   1.404       .  A
C3933     Br3940   1.934       .  S
C3934      C3935   1.412       .  A
C3935      C3936   1.407       .  A
C3936      C3937   1.417       .  A
C3936     Br3941   1.929       .  S
C3937      C3938   1.420       .  A
C3938     Br3939   1.932       .  S
C3943      C3944   1.413       .  A
C3943      C3948   1.419       .  A
C3943     Br3950   1.926       .  S
C3944      C3945   1.419       .  A
C3945      C3946   1.398       .  A
C3945     Br3952   1.934       .  S
C3946      C3947   1.405       .  A
C3946     Br3951   1.935       .  S
C3947      C3948   1.413       .  A
C3948     Br3949   1.926       .  S
C3953      C3954   1.419       .  A
C3953      C3958   1.419       .  A
C3953     Br3960   1.934       .  S
C3954      C3955   1.411       .  A
C3955      C3956   1.417       .  A
C3955     Br3962   1.925       .  S
C3956      C3957   1.410       .  A
C3956     Br3961   1.917       .  S
C3957      C3958   1.413       .  A
C3958     Br3959   1.914       .  S
C3963      C3964   1.416       .  A
C3963      C3968   1.409       .  A
C3963     Br3970   1.931       .  S
C3964      C3965   1.414       .  A
C3965      C3966   1.417       .  A
C3966      C3967   1.417       .  A
C3967      C3968   1.413       .  A
C3968     Br3969   1.935       .  S
C3973      C3974   1.411       .  A
C3973      C3978   1.410       .  A
C3973     Br3980   1.928       .  S
C3974      C3975   1.411       .  A
C3975      C3976   1.406       .  A
C3975     Br3982   1.930       .  S
C3976      C3977   1.407       .  A
C3976     Br3981   1.931       .  S
C3977      C3978   1.408       .  A
C3978     Br3979   1.928       .  S
C3983      C3984   1.416       .  A
C3983      C3988   1.415       .  A
C3983     Br3990   1.922       .  S
C3984      C3985   1.412       .  A
C3985      C3986   1.409       .  A
C3985     Br3992   1.931       .  S
C3986      C3987   1.411       .  A
C3986     Br3991   1.930       .  S
C3987      C3988   1.415       .  A
C3988     Br3989   1.932       .  S
C3993      C3998   1.410       .  A
C3993     Br4000   1.927       .  S
C3994      C3995   1.406       .  A
C3995     Br4002   1.916       .  S
C3996      C3997   1.406       .  A
C3996     Br4001   1.923       .  S
C3997      C3998   1.408       .  A
C3998     Br3999   1.926       .  S
C4003      C4004   1.414       .  A
C4003      C4008   1.400       .  A
C4003     Br4010   1.932       .  S
C4004      C4005   1.414       .  A
C4005      C4006   1.424       .  A
C4005     Br4012   1.926       .  S
C4006      C4007   1.416       .  A
C4006     Br4011   1.925       .  S
C4007      C4008   1.410       .  A
C4008     Br4009   1.933       .  S
C4013      C4014   1.410       .  A
C4013      C4018   1.405       .  A
C4013     Br4020   1.937       .  S
C4014      C4015   1.413       .  A
C4015      C4016   1.411       .  A
C4016      C4017   1.417       .  A
C4016     Br4021   1.932       .  S
C4017      C4018   1.420       .  A
C4018     Br4019   1.932       .  S
C4023      C4028   1.415       .  A
C4023     Br4030   1.928       .  S
C4024      C4025   1.408       .  A
C4025     Br4032   1.928       .  S
C4026      C4027   1.414       .  A
C4027      C4028   1.410       .  A
C4028     Br4029   1.927       .  S
