geometry optimzed in LAMMPS
_audit_creation_date              2020-12-01 
_audit_creation_method            'lammps2cif' 
_symmetry_space_group_name_H-M    'P1' 
_symmetry_Int_Tables_number       1 
_symmetry_cell_setting            triclinic 
loop_ 
_symmetry_equiv_pos_as_xyz 
  x,y,z 
_cell_length_a                    38.01027329 
_cell_length_b                    37.65166472397051 
_cell_length_c                    39.00006280023041 
_cell_angle_alpha                 89.8250575030305 
_cell_angle_beta                  89.95645680138203 
_cell_angle_gamma                 89.90689246867552 
loop_ 
_atom_site_label 
_atom_site_type_symbol 
_atom_site_fract_x 
_atom_site_fract_y 
_atom_site_fract_z 
_atom_site_charge 
O1          O  0.38712865  0.97620593  0.13042840    -0.82500
C2          C  0.51255684  0.90197030  0.13121776     0.96800
O3          O  0.51140291  0.93438420  0.14025331    -0.71600
O4          O  0.47905439  0.95469489  0.08752556    -0.75200
Al5        Al  0.47069751  0.96514274  0.13229781     1.49000
C6          C  0.45763169  0.96124682  0.06427991     0.92100
O7          O  0.41207888  0.89218091  0.08703372    -0.81500
O8          O  0.40569813  0.90282584  0.18803752    -0.75000
Al9        Al  0.40129127  0.93380870  0.10970037     1.90100
O10         O  0.42233449  0.85972458  0.13279918    -0.74100
O11         O  0.47204696  0.92293721  0.19788697    -0.73900
O12         O  0.48714502  0.88214942  0.13857066    -0.79600
O13         O  0.46504193  0.97711555  0.17779525    -0.77800
O14         O  0.43917494  0.93119141  0.13527903    -1.13900
O15         O  0.43668629  0.00353820  0.12114384    -0.73100
C16         C  0.40313443  0.00412859  0.12270093     0.97600
C17         C  0.41192140  0.86263748  0.10181039     0.94000
Al18       Al  0.44664882  0.89450824  0.16261718     1.55600
O19         O  0.42464985  0.95849535  0.07015845    -0.77800
C20         C  0.47298953  0.95669512  0.20208744     0.98200
C21         C  0.37565461  0.90095191  0.17463799     0.93000
O22         O  0.37085718  0.90950347  0.14330258    -0.83100
O23         O  0.10631679  0.01151299  0.37706202    -0.82500
C24         C  0.98538481  0.09417308  0.37700533     0.96800
O25         O  0.98474374  0.06106495  0.38317651    -0.71600
O26         O  0.01869920  0.04162896  0.33021967    -0.75200
Al27       Al  0.02363531  0.02850209  0.37548154     1.49000
C28         C  0.04141253  0.03362817  0.30848829     0.92100
O29         O  0.09033208  0.09919045  0.33548712    -0.81500
O30         O  0.09054746  0.08361385  0.43585022    -0.75000
Al31       Al  0.09651190  0.05565496  0.35716527     1.90100
O32         O  0.07844975  0.13028351  0.38179378    -0.74100
O33         O  0.02354438  0.06739297  0.44306970    -0.73900
O34         O  0.01189310  0.11203255  0.38512141    -0.79600
O35         O  0.02590974  0.01387708  0.42097802    -0.77800
O36         O  0.05736223  0.06001199  0.38105940    -1.13900
O37         O  0.05520283  0.98861855  0.36449556    -0.73100
C38         C  0.08837713  0.98538709  0.36754520     0.97600
C39         C  0.09025895  0.12820529  0.35120854     0.94000
Al40       Al  0.05120367  0.09577641  0.40956533     1.55600
O41         O  0.07398615  0.03401079  0.31621550    -0.77800
C42         C  0.02028377  0.03367794  0.44630855     0.98200
C43         C  0.12118726  0.08395466  0.42369851     0.93000
O44         O  0.12646134  0.07633902  0.39237539    -0.83100
O45         O  0.23168467  0.85514215  0.25272439    -0.82500
C46         C  0.15365888  0.73150259  0.26025385     0.96800
O47         O  0.18612573  0.73165259  0.26813575    -0.71600
O48         O  0.20722957  0.76157140  0.21372081    -0.75200
Al49       Al  0.21805089  0.77107832  0.25851351     1.49000
C50         C  0.21438921  0.78243724  0.18989432     0.92100
O51         O  0.14624723  0.83088270  0.21197740    -0.81500
O52         O  0.16103971  0.84111619  0.31236229    -0.75000
Al53       Al  0.18878531  0.84142487  0.23335851     1.90100
O54         O  0.11560309  0.82427043  0.25944280    -0.74100
O55         O  0.17735072  0.77381155  0.32474350    -0.73900
O56         O  0.13514484  0.75815282  0.26721614    -0.79600
O57         O  0.23082371  0.77771329  0.30386365    -0.77800
O58         O  0.18561630  0.80424119  0.26061276    -1.13900
O59         O  0.25687100  0.80353891  0.24634532    -0.73100
C60         C  0.25888638  0.83736505  0.24673651     0.97600
C61         C  0.11751520  0.83253194  0.22776870     0.94000
Al62       Al  0.14982732  0.79938894  0.28915636     1.55600
O63         O  0.21204834  0.81587075  0.19472048    -0.77800
C64         C  0.21068480  0.77147621  0.32865123     0.98200
C65         C  0.15893823  0.87082772  0.29763363     0.93000
O66         O  0.16631147  0.87407384  0.26588248    -0.83100
O67         O  0.87099956  0.91948790  0.12861723    -0.82500
C68         C  0.01295508  0.90251226  0.14364866     0.96800
O69         O  0.98621695  0.88445859  0.13661971    -0.71600
O70         O  0.91994912  0.86624828  0.14118058    -0.75200
Al71       Al  0.94671967  0.89957729  0.11188460     1.49000
C72         C  0.90813909  0.86952086  0.17163135     0.92100
O73         O  0.92580981  0.96434254  0.20340430    -0.81500
O74         O  0.94335346  0.00836297  0.15417841    -0.75000
Al75       Al  0.90193582  0.94160893  0.16319137     1.90100
O76         O  0.98062509  0.95559280  0.18822178    -0.74100
O77         O  0.97107254  0.98124707  0.09756868    -0.73900
O78         O  0.01351944  0.93509065  0.13521127    -0.79600
O79         O  0.97380823  0.92695620  0.07702987    -0.77800
O80         O  0.94075200  0.93629549  0.13905252    -1.13900
O81         O  0.90709902  0.91034727  0.08549490    -0.73100
C82         C  0.87652443  0.90992637  0.09770165     0.97600
C83         C  0.95868565  0.96428159  0.21035975     0.94000
Al84       Al  0.97464091  0.96791065  0.14312882     1.55600
O85         O  0.90799402  0.89904947  0.18632463    -0.77800
C86         C  0.97644511  0.96064953  0.07279459     0.98200
C87         C  0.91011186  0.01137417  0.15131524     0.93000
O88         O  0.89239885  0.98508376  0.14183846    -0.83100
O89         O  0.82932870  0.12002628  0.25317716    -0.82500
C90         C  0.84265056  0.26225315  0.26332600     0.96800
O91         O  0.86110662  0.23586727  0.25540074    -0.71600
O92         O  0.88117056  0.16946897  0.26012388    -0.75200
Al93       Al  0.84584116  0.19534956  0.23222733     1.49000
C94         C  0.88027256  0.16034869  0.29163317     0.92100
O95         O  0.78709647  0.17555391  0.32766415    -0.81500
O96         O  0.74014304  0.19042046  0.27896781    -0.75000
Al97       Al  0.80841106  0.15130546  0.28761814     1.90100
O98         O  0.79171762  0.23080278  0.31050099    -0.74100
O99         O  0.76392765  0.21776573  0.22058403    -0.73900
O100        O  0.81011393  0.26229669  0.25590161    -0.79600
O101        O  0.81690322  0.22192047  0.19819236    -0.77800
O102        O  0.81080544  0.18944789  0.26151223    -1.13900
O103        O  0.83436014  0.15443620  0.20774239    -0.73100
C104        C  0.83666268  0.12427078  0.22153460     0.97600
C105        C  0.78572819  0.20877093  0.33364920     0.94000
Al106      Al  0.77865495  0.22284694  0.26583269     1.55600
O107        O  0.85182934  0.16064311  0.30795603    -0.77800
C108        C  0.78339437  0.22402326  0.19520613     0.98200
C109        C  0.73784443  0.15669094  0.27796334     0.93000
O110        O  0.76440484  0.13862778  0.26980732    -0.83100
O111        O  0.17128346  0.37704960  0.25363695    -0.82500
C112        C  0.15281059  0.23612929  0.26448529     0.96800
O113        O  0.13565558  0.26309418  0.25575041    -0.71600
O114        O  0.11889104  0.33011455  0.26076697    -0.75200
Al115      Al  0.15256376  0.30283452  0.23251506     1.49000
C116        C  0.12020535  0.33831105  0.29244885     0.92100
O117        O  0.21451174  0.31882787  0.32747315    -0.81500
O118        O  0.25894488  0.30363976  0.27631546    -0.75000
Al119      Al  0.19210589  0.34444433  0.28761513     1.90100
O120        O  0.20733330  0.26432927  0.30989963    -0.74100
O121        O  0.23262952  0.27702684  0.21988646    -0.73900
O122        O  0.18531897  0.23423383  0.25664647    -0.79600
O123        O  0.17940958  0.27506827  0.19835109    -0.77800
O124        O  0.18796024  0.30675464  0.26150969    -1.13900
O125        O  0.16628749  0.34325673  0.20805098    -0.73100
C126        C  0.16454043  0.37341594  0.22177098     0.97600
C127        C  0.21552359  0.28534688  0.33304678     0.94000
Al128      Al  0.21898978  0.27229007  0.26506567     1.55600
O129        O  0.14865400  0.33614507  0.30880200    -0.77800
C130        C  0.21266321  0.27146811  0.19495060     0.98200
C131        C  0.26179076  0.33735746  0.27499349     0.93000
O132        O  0.23534950  0.35593905  0.26801339    -0.83100
O133        O  0.12723925  0.58075191  0.12981219    -0.82500
C134        C  0.98559678  0.59240640  0.14377878     0.96800
O135        O  0.01164441  0.61115285  0.13593598    -0.71600
O136        O  0.07705388  0.63163542  0.14117877    -0.75200
Al137      Al  0.05165191  0.59754651  0.11150176     1.49000
C138        C  0.08727536  0.62842188  0.17221424     0.92100
O139        O  0.07476561  0.53233340  0.20324846    -0.81500
O140        O  0.05932079  0.48842003  0.15230363    -0.75000
Al141      Al  0.09719920  0.55694688  0.16356089     1.90100
O142        O  0.01982346  0.53814544  0.18774987    -0.74100
O143        O  0.02944033  0.51554798  0.09653282    -0.73900
O144        O  0.98583225  0.55958920  0.13614319    -0.79600
O145        O  0.02518521  0.56988307  0.07625484    -0.77800
O146        O  0.05860520  0.56064771  0.13872579    -1.13900
O147        O  0.09210179  0.58823389  0.08558046    -0.73100
C148        C  0.12244831  0.58904113  0.09847277     0.97600
C149        C  0.04202400  0.53065759  0.20998603     0.94000
Al150      Al  0.02605914  0.52770077  0.14247325     1.55600
O151        O  0.08774150  0.59870891  0.18670815    -0.77800
C152        C  0.02288019  0.53620134  0.07198355     0.98200
C153        C  0.09278017  0.48701686  0.15030056     0.93000
O154        O  0.10974416  0.51438831  0.14232177    -0.83100
O155        O  0.89050564  0.48453898  0.37915571    -0.82500
C156        C  0.01284043  0.40391543  0.37549140     0.96800
O157        O  0.01302533  0.43678102  0.38271834    -0.71600
O158        O  0.97913864  0.45925823  0.33130063    -0.75200
Al159      Al  0.97352263  0.46923130  0.37686768     1.49000
C160        C  0.95657841  0.46777845  0.30968554     0.92100
O161        O  0.90900617  0.40023913  0.33292197    -0.81500
O162        O  0.90697682  0.40928375  0.43403825    -0.75000
Al163      Al  0.90133644  0.44195731  0.35682760     1.90100
O164        O  0.92038198  0.36639938  0.37760663    -0.74100
O165        O  0.97403083  0.42617786  0.44248473    -0.73900
O166        O  0.98642097  0.38541460  0.38251447    -0.79600
O167        O  0.97088632  0.48088205  0.42271041    -0.77800
O168        O  0.94033416  0.43684946  0.38072543    -1.13900
O169        O  0.94102867  0.50913651  0.36791215    -0.73100
C170        C  0.90765238  0.51155322  0.37065905     0.97600
C171        C  0.90914646  0.37020623  0.34695045     0.94000
Al172      Al  0.94681603  0.39949617  0.40740845     1.55600
O173        O  0.92389555  0.46663037  0.31706060    -0.77800
C174        C  0.97736774  0.45973176  0.44682372     0.98200
C175        C  0.87644153  0.40862979  0.42164943     0.93000
O176        O  0.87116395  0.41813095  0.39069405    -0.83100
O177        O  0.32864428  0.61524047  0.00271790    -0.82500
C178        C  0.34523561  0.75756515  0.01536030     0.96800
O179        O  0.36313677  0.72518382  0.50794194    -0.71600
O180        O  0.38152671  0.66365178  0.01251048    -0.75200
Al181      Al  0.34701881  0.68530229  0.48429904     1.49000
C182        C  0.37906677  0.65297606  0.04355804     0.92100
O183        O  0.28540675  0.67146430  0.07738980    -0.81500
O184        O  0.24073139  0.68808132  0.02784222    -0.75000
Al185      Al  0.30732477  0.64683180  0.03716869     1.90100
O186        O  0.29276261  0.72639833  0.06081595    -0.74100
O187        O  0.26603802  0.70868157  0.47167734    -0.73900
O188        O  0.31294750  0.75828418  0.00702751    -0.79600
O189        O  0.31931153  0.71309487  0.45014361    -0.77800
O190        O  0.31175056  0.68537413  0.01198342    -1.13900
O191        O  0.33414550  0.64507937  0.45974152    -0.73100
C192        C  0.33616081  0.61477642  0.47328322     0.97600
C193        C  0.28465525  0.70477136  0.08373940     0.94000
Al194      Al  0.28039263  0.71946613  0.01601933     1.55600
O195        O  0.35004544  0.65426670  0.05885758    -0.77800
C196        C  0.28587121  0.71587460  0.44685528     0.98200
C197        C  0.23751764  0.65453662  0.02546433     0.93000
O198        O  0.26374492  0.63602421  0.01738403    -0.83100
O199        O  0.73908704  0.35379195  0.50483608    -0.82500
C200        C  0.65186944  0.22969211  0.00172089     0.96800
O201        O  0.68455209  0.22958083  0.00858544    -0.71600
O202        O  0.71096217  0.26558274  0.45692385    -0.75200
Al203      Al  0.72228414  0.27051662  0.50250670     1.49000
C204        C  0.71881811  0.28886435  0.43541328     0.92100
O205        O  0.65365668  0.33815758  0.46094039    -0.81500
O206        O  0.65856417  0.33723068  0.05798123    -0.75000
Al207      Al  0.69597348  0.34422508  0.48372591     1.90100
O208        O  0.61435535  0.32309153  0.00304969    -0.74100
O209        O  0.67508204  0.26995771  0.06765709    -0.73900
O210        O  0.63354729  0.25642344  0.00866327    -0.79600
O211        O  0.72891534  0.27333449  0.04728876    -0.77800
O212        O  0.68430561  0.30286235  0.00483349    -1.13900
O213        O  0.76241164  0.30245858  0.49228816    -0.73100
C214        C  0.76525761  0.33602923  0.49528931     0.97600
C215        C  0.62447727  0.33895189  0.47588230     0.94000
Al216      Al  0.64799461  0.29678463  0.03246770     1.55600
O217        O  0.71832865  0.32164642  0.44334678    -0.77800
C218        C  0.70840587  0.26791849  0.07201694     0.98200
C219        C  0.65827563  0.36787539  0.04511866     0.93000
O220        O  0.66637702  0.37257847  0.01378654    -0.83100
O221        O  0.37239804  0.41218967  0.37731545    -0.82500
C222        C  0.51293023  0.39748245  0.39085940     0.96800
O223        O  0.48713723  0.37850053  0.38267866    -0.71600
O224        O  0.42027614  0.35870977  0.38639457    -0.75200
Al225      Al  0.44721151  0.39349530  0.35825169     1.49000
C226        C  0.40891965  0.36055338  0.41716866     0.92100
O227        O  0.42782868  0.45478478  0.45248340    -0.81500
O228        O  0.44214939  0.50150726  0.40237400    -0.75000
Al229      Al  0.40324034  0.43296023  0.41201149     1.90100
O230        O  0.48229534  0.45025137  0.43488702    -0.74100
O231        O  0.46891094  0.47570634  0.34470911    -0.73900
O232        O  0.51332047  0.42987114  0.38143754    -0.79600
O233        O  0.47418197  0.42187865  0.32382453    -0.77800
O234        O  0.44124464  0.42944076  0.38664849    -1.13900
O235        O  0.40718014  0.40498939  0.33272369    -0.73100
C236        C  0.37690758  0.40449045  0.34581541     0.97600
C237        C  0.46094545  0.45635689  0.45834209     0.94000
Al238      Al  0.47422238  0.46210935  0.39019361     1.55600
O239        O  0.41054353  0.38923386  0.43340069    -0.77800
C240        C  0.47578003  0.45568024  0.31987421     0.98200
C241        C  0.40876519  0.50344139  0.40056680     0.93000
O242        O  0.39161738  0.47650359  0.39229786    -0.83100
O243        O  0.26029285  0.13260536  0.50638155    -0.82500
C244        C  0.33900251  0.25585899  0.00054882     0.96800
O245        O  0.30641480  0.25619630  0.00809977    -0.71600
O246        O  0.28640187  0.22173820  0.45864968    -0.75200
Al247      Al  0.27586891  0.21622787  0.50394354     1.49000
C248        C  0.27799380  0.19941422  0.43667663     0.92100
O249        O  0.34483097  0.14935982  0.46074250    -0.81500
O250        O  0.33460500  0.15105996  0.06191848    -0.75000
Al251      Al  0.30264833  0.14285302  0.48426611     1.90100
O252        O  0.37603022  0.16273287  0.00437466    -0.74100
O253        O  0.31760473  0.21829134  0.06827324    -0.73900
O254        O  0.35694820  0.22893183  0.00741512    -0.79600
O255        O  0.26329323  0.21388038  0.04950780    -0.77800
O256        O  0.30629620  0.18247123  0.00785588    -1.13900
O257        O  0.23614737  0.18398157  0.49492497    -0.73100
C258        C  0.23370477  0.15040831  0.49820542     0.97600
C259        C  0.37418594  0.14984646  0.47550030     0.94000
Al260      Al  0.34357426  0.19002375  0.03370181     1.55600
O261        O  0.27885494  0.16625994  0.44392896    -0.77800
C262        C  0.28441109  0.22049953  0.07334250     0.98200
C263        C  0.33521123  0.11983606  0.05085616     0.93000
O264        O  0.32468331  0.11297372  0.02054194    -0.83100
O265        O  0.62685623  0.07851968  0.37972943    -0.82500
C266        C  0.48592164  0.09190202  0.39046795     0.96800
O267        O  0.51205225  0.11043625  0.38246967    -0.71600
O268        O  0.57810400  0.13027971  0.38785195    -0.75200
Al269      Al  0.55237259  0.09563870  0.35903774     1.49000
C270        C  0.58706014  0.12840845  0.41935271     0.92100
O271        O  0.57114541  0.03275893  0.45336725    -0.81500
O272        O  0.55748506  0.98779974  0.40255956    -0.75000
Al273      Al  0.59547224  0.05633907  0.41356621     1.90100
O274        O  0.51685320  0.03832684  0.43593032    -0.74100
O275        O  0.53041620  0.01362811  0.34578243    -0.73900
O276        O  0.48578196  0.05916272  0.38239649    -0.79600
O277        O  0.52619342  0.06748405  0.32437854    -0.77800
O278        O  0.55791698  0.05959820  0.38758140    -1.13900
O279        O  0.59313883  0.08452000  0.33425661    -0.73100
C280        C  0.62304002  0.08602770  0.34802885     0.97600
C281        C  0.53808256  0.03076822  0.45911973     0.94000
Al282      Al  0.52503792  0.02694401  0.39104482     1.55600
O283        O  0.58580283  0.09937299  0.43521876    -0.77800
C284        C  0.52416121  0.03374222  0.32084255     0.98200
C285        C  0.59090574  0.98616824  0.40073681     0.93000
O286        O  0.60822584  0.01344139  0.39351939    -0.83100
O287        O  0.66640997  0.87952380  0.00334422    -0.82500
C288        C  0.65601231  0.73602177  0.01514770     0.96800
O289        O  0.63611761  0.76089391  0.50963612    -0.71600
O290        O  0.61679299  0.82882795  0.01264903    -0.75200
Al291      Al  0.65018587  0.80127872  0.48557046     1.49000
C292        C  0.61857581  0.83913895  0.04373329     0.92100
O293        O  0.71304812  0.82637183  0.07760368    -0.81500
O294        O  0.75856532  0.81205927  0.02709563    -0.75000
Al295      Al  0.68961486  0.84920397  0.03755222     1.90100
O296        O  0.70958668  0.77088777  0.06155156    -0.74100
O297        O  0.73128641  0.77946674  0.47110101    -0.73900
O298        O  0.68907876  0.73688814  0.00947302    -0.79600
O299        O  0.67759856  0.77417996  0.45115270    -0.77800
O300        O  0.68731187  0.81032757  0.01253034    -1.13900
O301        O  0.66086529  0.84184434  0.45993763    -0.73100
C302        C  0.65947330  0.87236858  0.47292018     0.97600
C303        C  0.71597875  0.79329932  0.08410445     0.94000
Al304      Al  0.72037937  0.77792469  0.01655118     1.55600
O305        O  0.64737453  0.83919692  0.05940212    -0.77800
C306        C  0.71088171  0.77168285  0.44696495     0.98200
C307        C  0.75980171  0.84594122  0.02545661     0.93000
O308        O  0.73246776  0.86281917  0.01769740    -0.83100
O309        O  0.76581913  0.63549691  0.24863493    -0.82500
C310        C  0.83824336  0.76358727  0.25484549     0.96800
O311        O  0.80555594  0.76230322  0.26182817    -0.71600
O312        O  0.78607285  0.72996049  0.20883383    -0.75200
Al313      Al  0.77551007  0.72091527  0.25358489     1.49000
C314        C  0.78053892  0.70852391  0.18529706     0.92100
O315        O  0.85043286  0.66396470  0.20823240    -0.81500
O316        O  0.83595757  0.65421403  0.30903866    -0.75000
Al317      Al  0.80834621  0.65137653  0.22971236     1.90100
O318        O  0.88017017  0.67307693  0.25562026    -0.74100
O319        O  0.81586893  0.72085321  0.31999216    -0.73900
O320        O  0.85737412  0.73762762  0.26244767    -0.79600
O321        O  0.76270610  0.71500711  0.29905100    -0.77800
O322        O  0.80933781  0.68915170  0.25647322    -1.13900
O323        O  0.73854129  0.68631968  0.24232333    -0.73100
C324        C  0.73806686  0.65246971  0.24224566     0.97600
C325        C  0.87901932  0.66389360  0.22424179     0.94000
Al326      Al  0.84470527  0.69625510  0.28493514     1.55600
O327        O  0.78400137  0.67523197  0.19046392    -0.77800
C328        C  0.78248322  0.72236379  0.32374386     0.98200
C329        C  0.83998463  0.62451913  0.29486214     0.93000
O330        O  0.83259762  0.62027197  0.26319586    -0.83100
O331        O  0.60948131  0.51002502  0.12442358    -0.82500
C332        C  0.48747189  0.58840437  0.12819794     0.96800
O333        O  0.48755337  0.55611817  0.13787982    -0.71600
O334        O  0.51699364  0.53415443  0.08419282    -0.75200
Al335      Al  0.52656609  0.52379818  0.12884781     1.49000
C336        C  0.53752699  0.52670268  0.06044274     0.92100
O337        O  0.58735677  0.59583521  0.08115634    -0.81500
O338        O  0.59492619  0.58230220  0.18256555    -0.75000
Al339      Al  0.59652653  0.55282986  0.10385132     1.90100
O340        O  0.57998589  0.62743527  0.12789289    -0.74100
O341        O  0.52797973  0.56570298  0.19408441    -0.73900
O342        O  0.51369130  0.60756209  0.13453554    -0.79600
O343        O  0.53342746  0.51157670  0.17418292    -0.77800
O344        O  0.55938925  0.55666107  0.13040945    -1.13900
O345        O  0.55858005  0.48440955  0.11721348    -0.73100
C346        C  0.59201349  0.48269101  0.11802445     0.97600
C347        C  0.58911268  0.62510747  0.09639334     0.94000
Al348      Al  0.55417400  0.59326668  0.15803381     1.55600
O349        O  0.57082825  0.52892327  0.06503192    -0.77800
C350        C  0.52626112  0.53194291  0.19858087     0.98200
C351        C  0.62484785  0.58332413  0.16876524     0.93000
O352        O  0.62854256  0.57533240  0.13714369    -0.83100
C353        C  0.64618960  0.62612582  0.21227405    -0.21000
C354        C  0.65417304  0.59829516  0.18936856    -0.07600
C355        C  0.68932711  0.58684505  0.18633333     0.13300
C356        C  0.71544988  0.60355468  0.20601873    -0.21100
C357        C  0.70774031  0.63247080  0.22778596    -0.07600
C358        C  0.67247677  0.64369417  0.23103795     0.13300
C359        C  0.66236501  0.67418033  0.25399800    -0.24400
H360        H  0.61921789  0.63521708  0.21453410     0.14500
H361        H  0.74252061  0.59509095  0.20290129     0.14600
C362        C  0.69948325  0.55707181  0.16255365    -0.24400
H363        H  0.63339966  0.67799458  0.25493910     0.04800
H364        H  0.67404050  0.69928957  0.24439461     0.08000
H365        H  0.67173764  0.66894372  0.28049077     0.08000
H366        H  0.69433138  0.56490995  0.13557510     0.08000
H367        H  0.68410012  0.53288480  0.16892170     0.08000
H368        H  0.72786792  0.55038477  0.16466869     0.04800
C369        C  0.65846307  0.68572669  0.05683239    -0.21000
C370        C  0.63868735  0.70551792  0.03316946    -0.07600
C371        C  0.60193000  0.69847758  0.03054128     0.13300
C372        C  0.58603863  0.67359090  0.05281922    -0.21100
C373        C  0.60573809  0.65498226  0.07733134    -0.07600
C374        C  0.64265872  0.66003110  0.07810770     0.13300
C375        C  0.66582646  0.63717913  0.10026547    -0.24400
H376        H  0.68649291  0.69051611  0.05891648     0.14500
H377        H  0.55816301  0.66799168  0.05058476     0.14600
C378        C  0.57933655  0.71578431  0.00342226    -0.24400
H379        H  0.69390755  0.64502347  0.09841685     0.04800
H380        H  0.66388864  0.60918070  0.09176100     0.08000
H381        H  0.65744035  0.63938792  0.12737247     0.08000
H382        H  0.59124322  0.71153938  0.97774470     0.08000
H383        H  0.57657472  0.74458608  0.00834176     0.08000
H384        H  0.55236505  0.70447182  0.00301221     0.04800
C385        C  0.76174469  0.74344350  0.41746725    -0.21000
C386        C  0.72753344  0.75804424  0.41491813    -0.07600
C387        C  0.71167213  0.76026785  0.38231127     0.13300
C388        C  0.73056394  0.74861165  0.35342120    -0.21100
C389        C  0.76501805  0.73453950  0.35593365    -0.07600
C390        C  0.78057873  0.73169265  0.38861483     0.13300
C391        C  0.81653805  0.71555536  0.39354707    -0.24400
H392        H  0.77403280  0.74105003  0.44242723     0.14500
H393        H  0.71825175  0.75091802  0.32846307     0.14600
C394        C  0.67535965  0.77562677  0.37749707    -0.24400
H395        H  0.82385751  0.71391917  0.42107083     0.04800
H396        H  0.83666001  0.73205546  0.38044049     0.08000
H397        H  0.81699763  0.68820202  0.38296915     0.08000
H398        H  0.67452154  0.80322416  0.38743982     0.08000
H399        H  0.65575141  0.75907681  0.39128915     0.08000
H400        H  0.66761902  0.77641101  0.35004934     0.04800
C401        C  0.71268481  0.74757644  0.12760290    -0.21000
C402        C  0.73038558  0.77794517  0.11570519    -0.07600
C403        C  0.76624699  0.78228992  0.12413908     0.13300
C404        C  0.78360434  0.75555256  0.14261309    -0.21100
C405        C  0.76589158  0.72510516  0.15437150    -0.07600
C406        C  0.72984762  0.72131071  0.14676215     0.13300
C407        C  0.70864768  0.69089151  0.16047784    -0.24400
H408        H  0.68541258  0.74363284  0.12032781     0.14500
H409        H  0.81079135  0.75970663  0.15010134     0.14600
C410        C  0.78735119  0.81434475  0.11398252    -0.24400
H411        H  0.68125623  0.69138503  0.15070605     0.04800
H412        H  0.70694447  0.69337730  0.18851317     0.08000
H413        H  0.72106014  0.66524568  0.15337679     0.08000
H414        H  0.77146565  0.83489550  0.10094225     0.08000
H415        H  0.80916407  0.80591884  0.09694560     0.08000
H416        H  0.79874898  0.82674650  0.13724677     0.04800
C417        C  0.63921382  0.96343875  0.43631674    -0.21000
C418        C  0.61078126  0.95557971  0.41443044    -0.07600
C419        C  0.60034074  0.92007862  0.41009739     0.13300
C420        C  0.61810214  0.89337195  0.42837652    -0.21100
C421        C  0.64518212  0.90153890  0.45176478    -0.07600
C422        C  0.65607966  0.93703400  0.45550311     0.13300
C423        C  0.69806807  0.92825220  0.93132250    -0.24400
H424        H  0.64709461  0.99078266  0.43999474     0.14500
H425        H  0.60966575  0.86608234  0.42552615     0.14600
C426        C  0.57065861  0.91031259  0.38641015    -0.24400
H427        H  0.70789658  0.94977800  0.91431311     0.04800
H428        H  0.70891937  0.90263299  0.92200421     0.08000
H429        H  0.70789422  0.93322242  0.95768057     0.08000
H430        H  0.57623196  0.92049609  0.36021315     0.08000
H431        H  0.54559972  0.92187386  0.39582116     0.08000
H432        H  0.56716225  0.88108592  0.38483358     0.04800
C433        C  0.43147956  0.15640234  0.44564833    -0.21000
C434        C  0.40427804  0.13434394  0.45666549    -0.07600
C435        C  0.40375783  0.09846911  0.44588210     0.13300
C436        C  0.43011186  0.08579714  0.42376246    -0.21100
C437        C  0.45719718  0.10797117  0.41179365    -0.07600
C438        C  0.45804954  0.14390763  0.42359995     0.13300
C439        C  0.48662066  0.16976035  0.41360139    -0.24400
H440        H  0.43143967  0.18389252  0.45366818     0.14500
H441        H  0.42957879  0.05819512  0.41599071     0.14600
C442        C  0.37558089  0.07320668  0.45798438    -0.24400
H443        H  0.48214851  0.19655104  0.42465761     0.04800
H444        H  0.48744758  0.17285268  0.38529720     0.08000
H445        H  0.51242455  0.16031834  0.42336111     0.08000
H446        H  0.34954864  0.08174008  0.44812960     0.08000
H447        H  0.37493364  0.07259388  0.48641900     0.08000
H448        H  0.38036576  0.04570197  0.44885852     0.04800
C449        C  0.52241895  0.47769409  0.23531716    -0.21000
C450        C  0.51418538  0.51414306  0.23098507    -0.07600
C451        C  0.49160930  0.53022857  0.25512620     0.13300
C452        C  0.47879383  0.50995674  0.28289854    -0.21100
C453        C  0.48732586  0.47360272  0.28736599    -0.07600
C454        C  0.50912274  0.45727262  0.26269992     0.13300
C455        C  0.51904311  0.41857996  0.26514124    -0.24400
H456        H  0.53936082  0.46471411  0.21680896     0.14500
H457        H  0.46177651  0.52283624  0.30140570     0.14600
C458        C  0.48004125  0.56832354  0.25139890    -0.24400
H459        H  0.53653823  0.41034859  0.24375668     0.04800
H460        H  0.49499216  0.40193324  0.26394641     0.08000
H461        H  0.53319213  0.41343231  0.28955343     0.08000
H462        H  0.46623696  0.57203958  0.22654986     0.08000
H463        H  0.50326448  0.58610983  0.25254220     0.08000
H464        H  0.46168842  0.57632342  0.27217317     0.04800
C465        C  0.50404971  0.45905024  0.99744322    -0.21000
C466        C  0.47766506  0.47016736  0.48980434    -0.07600
C467        C  0.46848745  0.50371878  0.50282267     0.13300
C468        C  0.48655762  0.52584296  0.02190451    -0.21100
C469        C  0.51977210  0.51131031  0.03025532    -0.07600
C470        C  0.52800835  0.47692525  0.01849815     0.13300
C471        C  0.56076520  0.45787951  0.02970173    -0.24400
H472        H  0.51132014  0.43337066  0.98702735     0.14500
H473        H  0.47910209  0.55135974  0.03256645     0.14600
C474        C  0.43312717  0.52012364  0.49582139    -0.24400
H475        H  0.56265521  0.43104074  0.01821865     0.04800
H476        H  0.55979666  0.45418646  0.05775206     0.08000
H477        H  0.58444991  0.47332033  0.02231622     0.08000
H478        H  0.41192167  0.50196571  0.50454912     0.08000
H479        H  0.43059654  0.52512236  0.46807015     0.08000
H480        H  0.42973015  0.54591731  0.50919627     0.04800
C481        C  0.41133315  0.30618848  0.45278026    -0.21000
C482        C  0.39104363  0.33059962  0.43461558    -0.07600
C483        C  0.35409979  0.33070595  0.43958740     0.13300
C484        C  0.33863304  0.30612677  0.46227640    -0.21100
C485        C  0.35920405  0.28226463  0.48144179    -0.07600
C486        C  0.39644453  0.28269065  0.47663262     0.13300
C487        C  0.42134048  0.25958138  0.49709354    -0.24400
H488        H  0.43951326  0.30622630  0.44919466     0.14500
H489        H  0.30695577  0.30288930  0.95947405     0.14600
C490        C  0.33085674  0.35707009  0.42136186    -0.24400
H491        H  0.44934631  0.26617310  0.49194228     0.04800
H492        H  0.41787128  0.23128869  0.49026876     0.08000
H493        H  0.41665594  0.26344318  0.52493414     0.08000
H494        H  0.33505111  0.35517638  0.39330290     0.08000
H495        H  0.33706282  0.38432372  0.43011356     0.08000
H496        H  0.30254094  0.35221251  0.42661306     0.04800
C497        C  0.56242902  0.33926027  0.45613330    -0.21000
C498        C  0.59502378  0.35598829  0.45713457    -0.07600
C499        C  0.59995448  0.38786869  0.43808580     0.13300
C500        C  0.57307399  0.40039314  0.41645987    -0.21100
C501        C  0.54103177  0.38237089  0.41353147    -0.07600
C502        C  0.53529938  0.35214816  0.43499980     0.13300
C503        C  0.50035640  0.33386733  0.43726494    -0.24400
H504        H  0.55844724  0.31549935  0.47142558     0.14500
H505        H  0.57722922  0.42442678  0.40165963     0.14600
C506        C  0.63308500  0.40964629  0.44114183    -0.24400
H507        H  0.50043519  0.31242905  0.45690539     0.04800
H508        H  0.49364707  0.32144409  0.41235815     0.08000
H509        H  0.47998715  0.35353874  0.44477158     0.08000
H510        H  0.65572525  0.39523155  0.42986164     0.08000
H511        H  0.63833221  0.41561160  0.46853220     0.08000
H512        H  0.63082848  0.43536654  0.42729530     0.04800
C513        C  0.63980362  0.45924398  0.08194871    -0.21000
C514        C  0.61146830  0.45181440  0.10420785    -0.07600
C515        C  0.60066221  0.41640619  0.10882619     0.13300
C516        C  0.61768627  0.38951440  0.09021561    -0.21100
C517        C  0.64454803  0.39729677  0.06634479    -0.07600
C518        C  0.65602988  0.43263599  0.06252640     0.13300
C519        C  0.68522335  0.44261654  0.03813439    -0.24400
H520        H  0.64808775  0.48649746  0.07812495     0.14500
H521        H  0.60885010  0.36233561  0.09328193     0.14600
C522        C  0.57138452  0.40691590  0.13320944    -0.24400
H523        H  0.69219348  0.47116903  0.04016339     0.04800
H524        H  0.69368655  0.43816935  0.52400997     0.08000
H525        H  0.70915592  0.42677578  0.04398895     0.08000
H526        H  0.54624670  0.41877354  0.12433450     0.08000
H527        H  0.57764794  0.41694831  0.15924475     0.08000
H528        H  0.56759336  0.37772443  0.13497264     0.04800
C529        C  0.58728389  0.16881961  0.46907537    -0.21000
C530        C  0.60281481  0.15848211  0.43800741    -0.07600
C531        C  0.63719322  0.17035059  0.43018935     0.13300
C532        C  0.65505151  0.19215978  0.45347826    -0.21100
C533        C  0.63917828  0.20338792  0.48399239    -0.07600
C534        C  0.60476729  0.19157790  0.49192728     0.13300
C535        C  0.58236541  0.19835893  0.02219156    -0.24400
H536        H  0.56159179  0.15839398  0.47577001     0.14500
H537        H  0.68136885  0.20123286  0.44737345     0.14600
C538        C  0.65589152  0.15900139  0.39804745    -0.24400
H539        H  0.55681421  0.18435784  0.02492748     0.04800
H540        H  0.57684944  0.22726865  0.02298851     0.08000
H541        H  0.59918832  0.19082738  0.04432996     0.08000
H542        H  0.63986122  0.16614947  0.37528532     0.08000
H543        H  0.66062231  0.13004975  0.39893075     0.08000
H544        H  0.68196180  0.17195333  0.39536493     0.04800
C545        C  0.38193238  0.59501759  0.43252616    -0.21000
C546        C  0.35217885  0.58629040  0.45248954    -0.07600
C547        C  0.33963812  0.55124124  0.45251948     0.13300
C548        C  0.35760736  0.52560071  0.43326710    -0.21100
C549        C  0.38856956  0.53378558  0.41475688    -0.07600
C550        C  0.40058935  0.56912906  0.41406096     0.13300
C551        C  0.43283248  0.57967433  0.39402674    -0.24400
H552        H  0.39149792  0.62213349  0.43244300     0.14500
H553        H  0.34822117  0.49845025  0.43415638     0.14600
C554        C  0.30050778  0.55103127  0.96065535    -0.24400
H555        H  0.43723331  0.60881844  0.39478082     0.04800
H556        H  0.42975050  0.57172893  0.36679581     0.08000
H557        H  0.45649816  0.56664897  0.40499019     0.08000
H558        H  0.28092827  0.57085558  0.95158033     0.08000
H559        H  0.30215805  0.55209245  0.98904260     0.08000
H560        H  0.29102800  0.52419836  0.95339800     0.04800
C561        C  0.46821628  0.63140562  0.08352737    -0.21000
C562        C  0.45906036  0.60366727  0.10636265    -0.07600
C563        C  0.42419234  0.59093405  0.10627184     0.13300
C564        C  0.39941310  0.60708266  0.08453405    -0.21100
C565        C  0.40832336  0.63552162  0.06251230    -0.07600
C566        C  0.44341410  0.64731999  0.06156658     0.13300
C567        C  0.45459960  0.67735735  0.03851507    -0.24400
H568        H  0.49517271  0.64074117  0.08267945     0.14500
H569        H  0.37252422  0.59750637  0.08495723     0.14600
C570        C  0.41252271  0.56118419  0.12956356    -0.24400
H571        H  0.48291540  0.68382312  0.04170037     0.04800
H572        H  0.43912428  0.70143317  0.04473020     0.08000
H573        H  0.45021601  0.67005180  0.01130975     0.08000
H574        H  0.41821267  0.56811023  0.15665479     0.08000
H575        H  0.42642528  0.53626535  0.12267819     0.08000
H576        H  0.38384269  0.55606503  0.12735043     0.04800
C577        C  0.83620166  0.57026264  0.33075021    -0.21000
C578        C  0.85699695  0.59617390  0.31514934    -0.07600
C579        C  0.89352328  0.59708751  0.32222094     0.13300
C580        C  0.90860688  0.57085644  0.34308370    -0.21100
C581        C  0.88844230  0.54319752  0.35695985    -0.07600
C582        C  0.85122516  0.54374648  0.35163893     0.13300
C583        C  0.82672416  0.51666873  0.36725941    -0.24400
H584        H  0.80804321  0.57070150  0.32635969     0.14500
H585        H  0.93678374  0.57116176  0.34726471     0.14600
C586        C  0.91723957  0.62500584  0.30710898    -0.24400
H587        H  0.79866513  0.52342561  0.36263181     0.04800
H588        H  0.83069595  0.51559158  0.39543201     0.08000
H589        H  0.83126610  0.49017271  0.35573250     0.08000
H590        H  0.90843016  0.65177387  0.31520796     0.08000
H591        H  0.91704699  0.62278642  0.27882432     0.08000
H592        H  0.94492225  0.62179448  0.31566456     0.04800
C593        C  0.85638635  0.36244134  0.46283198    -0.21000
C594        C  0.84804765  0.39250531  0.44268291    -0.07600
C595        C  0.81317176  0.40514425  0.44240352     0.13300
C596        C  0.78749208  0.38696461  0.46142266    -0.21100
C597        C  0.79539208  0.35585030  0.48023580    -0.07600
C598        C  0.83045129  0.34373956  0.48125926     0.13300
C599        C  0.84070425  0.31161586  0.50206549    -0.24400
H600        H  0.88325833  0.35275904  0.46325511     0.14500
H601        H  0.75874820  0.40163949  0.96890376     0.14600
C602        C  0.80295689  0.43802579  0.42263694    -0.24400
H603        H  0.86954518  0.30689609  0.50133165     0.04800
H604        H  0.82760349  0.28758610  0.49181447     0.08000
H605        H  0.83287380  0.31554152  0.52922414     0.08000
H606        H  0.80674398  0.43368363  0.39475705     0.08000
H607        H  0.81934861  0.46072821  0.43112471     0.08000
H608        H  0.77696448  0.45287462  0.94072444     0.04800
C609        C  0.95603339  0.64739065  0.16492005    -0.21000
C610        C  0.95660867  0.60978808  0.16369147    -0.07600
C611        C  0.93261154  0.59080265  0.18476212     0.13300
C612        C  0.90929691  0.60971954  0.20594449    -0.21100
C613        C  0.90905420  0.64694474  0.20693016    -0.07600
C614        C  0.93241141  0.66606446  0.18601838     0.13300
C615        C  0.93202978  0.70607606  0.18572964    -0.24400
H616        H  0.97423359  0.66248424  0.14924511     0.14500
H617        H  0.89035159  0.59531234  0.22143458     0.14600
C618        C  0.93104137  0.55082371  0.18558988    -0.24400
H619        H  0.95213118  0.71710451  0.16798178     0.04800
H620        H  0.93761092  0.71613378  0.21189489     0.08000
H621        H  0.90579655  0.71586979  0.17743083     0.08000
H622        H  0.95603910  0.53983514  0.19545094     0.08000
H623        H  0.92564767  0.54043064  0.15953291     0.08000
H624        H  0.90985769  0.54101642  0.20280572     0.04800
C625        C  0.02224929  0.48355267  0.03334600    -0.21000
C626        C  0.01142986  0.51897126  0.03917848    -0.07600
C627        C  0.98732833  0.53444189  0.01594939     0.13300
C628        C  0.97491864  0.51428927  0.98796307    -0.21100
C629        C  0.99006907  0.47612870  0.47923387    -0.07600
C630        C  0.98061577  0.46357127  0.51199842     0.13300
C631        C  0.95950979  0.43004307  0.51654258    -0.24400
H632        H  0.04072828  0.47127793  0.05093750     0.14500
H633        H  0.01695057  0.51783854  0.45151554     0.14600
C634        C  0.97374453  0.57166663  0.02097404    -0.24400
H635        H  0.95357365  0.42467610  0.54396140     0.04800
H636        H  0.97453885  0.40703010  0.50645631     0.08000
H637        H  0.93413806  0.43241418  0.50261734     0.08000
H638        H  0.99588630  0.59080490  0.01962418    -0.06400
H639        H  0.96055887  0.57380469  0.04630857     0.08000
H640        H  0.95435476  0.57922125  0.00093453     0.04800
C641        C  0.02044815  0.47830684  0.23904673    -0.21000
C642        C  0.02677712  0.51496711  0.24079781    -0.07600
C643        C  0.00495914  0.53625727  0.26161636     0.13300
C644        C  0.97766768  0.52041324  0.28045204    -0.21100
C645        C  0.97137473  0.48371932  0.27872811    -0.07600
C646        C  0.99285312  0.46256760  0.25743476     0.13300
C647        C  0.98701878  0.42318127  0.25380190    -0.24400
H648        H  0.03552923  0.46220438  0.22125722     0.14500
H649        H  0.96247879  0.53641188  0.29816247     0.14600
C650        C  0.01038671  0.57586622  0.26344771    -0.24400
H651        H  0.98227494  0.41675089  0.22642935     0.04800
H652        H  0.96395052  0.41376676  0.26872294     0.08000
H653        H  0.01062536  0.40849015  0.26268155     0.08000
H654        H  0.00638086  0.58810127  0.23779924     0.08000
H655        H  0.03756960  0.58152959  0.27227843     0.08000
H656        H  0.99169626  0.58855472  0.28156130     0.04800
C657        C  0.14479263  0.63315059  0.05642346    -0.21000
C658        C  0.15154906  0.60325190  0.07726939    -0.07600
C659        C  0.18565814  0.58865718  0.07794464     0.13300
C660        C  0.21220221  0.60458041  0.05826185    -0.21100
C661        C  0.20610470  0.63583536  0.03909106    -0.07600
C662        C  0.17177644  0.65004802  0.03785357     0.13300
C663        C  0.16343402  0.68277118  0.01705299    -0.24400
H664        H  0.11848085  0.64429455  0.05582424     0.14500
H665        H  0.23856745  0.59367430  0.05968239     0.14600
C666        C  0.19427678  0.55636913  0.09930760    -0.24400
H667        H  0.13483525  0.68886605  0.01731297     0.04800
H668        H  0.17160606  0.67869712  0.99000151     0.08000
H669        H  0.17736019  0.70611973  0.02772156     0.08000
H670        H  0.17661379  0.53411186  0.09222071     0.08000
H671        H  0.19103147  0.56251670  0.12693796     0.08000
H672        H  0.22186349  0.54748591  0.09539866     0.04800
C673        C  0.28648610  0.38674704  0.30858037    -0.21000
C674        C  0.29303041  0.35626726  0.28854788    -0.07600
C675        C  0.32777813  0.34355492  0.28558866     0.13300
C676        C  0.35477812  0.36111308  0.30337194    -0.21100
C677        C  0.34772682  0.39033829  0.32488988    -0.07600
C678        C  0.31316614  0.40352121  0.32718982     0.13300
C679        C  0.30419334  0.43522594  0.34906783    -0.24400
H680        H  0.25981521  0.39657615  0.31124379     0.14500
H681        H  0.38140665  0.35091592  0.30166069     0.14600
C682        C  0.33648416  0.31162149  0.26399714    -0.24400
H683        H  0.27618183  0.44313615  0.34621449     0.04800
H684        H  0.32075775  0.45820719  0.34146130     0.08000
H685        H  0.30864485  0.42892101  0.37652977     0.08000
H686        H  0.32730532  0.31604794  0.23729991     0.08000
H687        H  0.32362498  0.28758450  0.27467554     0.08000
H688        H  0.36525578  0.30647122  0.26326105     0.04800
C689        C  0.26550811  0.26808471  0.15757392    -0.21000
C690        C  0.22978357  0.25915432  0.16284313    -0.07600
C691        C  0.21340999  0.23566516  0.13980718     0.13300
C692        C  0.23279585  0.22243452  0.11204213    -0.21100
C693        C  0.26825302  0.23199022  0.10624169    -0.07600
C694        C  0.28494582  0.25478469  0.12974552     0.13300
C695        C  0.32278054  0.26583305  0.12544084    -0.24400
H696        H  0.27846996  0.28570744  0.17548563     0.14500
H697        H  0.21983181  0.20450429  0.09442065     0.14600
C698        C  0.17594936  0.22355335  0.14466776    -0.24400
H699        H  0.33132611  0.28416215  0.14607505     0.04800
H700        H  0.32626219  0.27972897  0.10051903     0.08000
H701        H  0.34008525  0.24206680  0.12641686     0.08000
H702        H  0.15786586  0.24666456  0.14299185     0.08000
H703        H  0.17304521  0.21041032  0.17004266     0.08000
H704        H  0.16787283  0.20422898  0.12471195     0.04800
C705        C  0.21170571  0.23771500  0.37574596    -0.21000
C706        C  0.23011595  0.26773802  0.36376920    -0.07600
C707        C  0.26601197  0.27117808  0.37232477     0.13300
C708        C  0.28225724  0.24505072  0.39253527    -0.21100
C709        C  0.26371176  0.21543235  0.40508058    -0.07600
C710        C  0.22790595  0.21174408  0.39630788     0.13300
C711        C  0.20612650  0.18158672  0.40983281    -0.24400
H712        H  0.18455609  0.23405276  0.36795426     0.14500
H713        H  0.30949126  0.24859547  0.40012439     0.14600
C714        C  0.28800959  0.30118234  0.35889305    -0.24400
H715        H  0.17894053  0.18213696  0.39944793     0.04800
H716        H  0.20404601  0.18401846  0.43792930     0.08000
H717        H  0.21844113  0.15583433  0.40290335     0.08000
H718        H  0.27581010  0.32707067  0.36552195     0.08000
H719        H  0.29042942  0.29843109  0.33091698     0.08000
H720        H  0.31510755  0.30050791  0.36945775     0.04800
C721        C  0.07838084  0.33640676  0.34080973    -0.21000
C722        C  0.08975121  0.35345408  0.31080601    -0.07600
C723        C  0.07696063  0.38783329  0.30307387     0.13300
C724        C  0.05340733  0.40443622  0.32578158    -0.21100
C725        C  0.04170579  0.38724300  0.35567380    -0.07600
C726        C  0.05395222  0.35247670  0.36294605     0.13300
C727        C  0.04216181  0.33251263  0.39447563    -0.24400
H728        H  0.08902910  0.31046490  0.34710633     0.14500
H729        H  0.04346254  0.43069883  0.31972714     0.14600
C730        C  0.08899937  0.40762765  0.27158654    -0.24400
H731        H  0.05635688  0.30687136  0.39737976     0.04800
H732        H  0.01368569  0.32636190  0.39280161     0.08000
H733        H  0.04730339  0.34869451  0.41768379     0.08000
H734        H  0.08268050  0.39207355  0.24825763     0.08000
H735        H  0.11771478  0.41224707  0.27304207     0.08000
H736        H  0.07605551  0.43396692  0.26926307     0.04800
C737        C  0.12245658  0.39448117  0.17756490    -0.21000
C738        C  0.14939153  0.40285660  0.20112644    -0.07600
C739        C  0.15902588  0.43864343  0.20558223     0.13300
C740        C  0.14111987  0.46499681  0.18697355    -0.21100
C741        C  0.11296033  0.45677908  0.16481305    -0.07600
C742        C  0.10377454  0.42101600  0.15980724     0.13300
C743        C  0.07464400  0.41077788  0.13565534    -0.24400
H744        H  0.11486502  0.36699115  0.17408158     0.14500
H745        H  0.14822183  0.49253068  0.19102984     0.14600
C746        C  0.18811535  0.44926565  0.22969703    -0.24400
H747        H  0.07197544  0.38148921  0.13362228     0.04800
H748        H  0.08021704  0.42151788  0.10966250     0.08000
H749        H  0.04918703  0.42152801  0.14495626     0.08000
H750        H  0.21272780  0.43501322  0.22286356     0.08000
H751        H  0.18070041  0.44282487  0.25651751     0.08000
H752        H  0.19345776  0.47823531  0.22844368     0.04800
C753        C  0.71323577  0.10531586  0.30990731    -0.21000
C754        C  0.70683248  0.13749577  0.29222455    -0.07600
C755        C  0.67226021  0.15123526  0.29163621     0.13300
C756        C  0.64533905  0.13264939  0.30873000    -0.21100
C757        C  0.65224961  0.10152359  0.32773611    -0.07600
C758        C  0.68659197  0.08756347  0.32809088     0.13300
C759        C  0.69515584  0.05383800  0.34725485    -0.24400
H760        H  0.73971079  0.09463177  0.31082265     0.14500
H761        H  0.61888245  0.14345512  0.30860817     0.14600
C762        C  0.66349080  0.18529825  0.27315150    -0.24400
H763        H  0.72303235  0.04581013  0.34358075     0.04800
H764        H  0.67816804  0.03193461  0.33793042     0.08000
H765        H  0.69077371  0.05764146  0.37513355     0.08000
H766        H  0.67187145  0.18346171  0.24593062     0.08000
H767        H  0.67695646  0.20795760  0.28563187     0.08000
H768        H  0.63479964  0.19091671  0.27365270     0.04800
C769        C  0.75818682  0.27335448  0.11296811    -0.21000
C770        C  0.72516497  0.25820384  0.10534497    -0.07600
C771        C  0.71192589  0.23145681  0.12721484     0.13300
C772        C  0.73213719  0.22030911  0.15557348    -0.21100
C773        C  0.76547591  0.23499233  0.16280665    -0.07600
C774        C  0.77830558  0.26235017  0.14139091     0.13300
C775        C  0.81248505  0.28094430  0.14898083    -0.24400
H776        H  0.76848111  0.29400218  0.09633642     0.14500
H777        H  0.72181439  0.19972976  0.17226010     0.14600
C778        C  0.67719571  0.21371605  0.12018190    -0.24400
H779        H  0.81779466  0.30269359  0.13038727     0.04800
H780        H  0.83463122  0.26177856  0.14745519     0.08000
H781        H  0.81150168  0.29271446  0.17505067     0.08000
H782        H  0.67768844  0.20127509  0.09440097     0.08000
H783        H  0.65566431  0.23362855  0.12130271     0.08000
H784        H  0.67131755  0.19264191  0.13932571     0.04800
C785        C  0.77144355  0.27469670  0.40310375    -0.21000
C786        C  0.73458723  0.27507706  0.40412586    -0.07600
C787        C  0.71545485  0.25053588  0.38431940     0.13300
C788        C  0.73356727  0.22482032  0.36535383    -0.21100
C789        C  0.77044136  0.22421601  0.36443937    -0.07600
C790        C  0.78960050  0.24992614  0.38297676     0.13300
C791        C  0.82921414  0.25128863  0.38124876    -0.24400
H792        H  0.78606484  0.29267966  0.41943709     0.14500
H793        H  0.71889648  0.20689946  0.34899469     0.14600
C794        C  0.67587764  0.25245076  0.38249235    -0.24400
H795        H  0.84006791  0.27246781  0.39794245     0.04800
H796        H  0.83790918  0.25681907  0.35460929     0.08000
H797        H  0.84034069  0.22543349  0.38971168     0.08000
H798        H  0.66792028  0.27883512  0.37233679     0.08000
H799        H  0.66407070  0.24895489  0.40824833     0.08000
H800        H  0.66491885  0.23179281  0.36528609     0.04800
C801        C  0.88990139  0.28217030  0.30304214    -0.21000
C802        C  0.85927845  0.29084551  0.28409453    -0.07600
C803        C  0.84483732  0.32523193  0.28744478     0.13300
C804        C  0.86167882  0.34988576  0.30873106    -0.21100
C805        C  0.89226048  0.34121466  0.32740309    -0.07600
C806        C  0.90637098  0.30681511  0.32477689     0.13300
C807        C  0.93918770  0.29638082  0.34397583    -0.24400
H808        H  0.90085396  0.25563854  0.30134105     0.14500
H809        H  0.85070383  0.37638657  0.31094489     0.14600
C810        C  0.81215112  0.33654628  0.26843645    -0.24400
H811        H  0.94724000  0.26865601  0.33822934     0.04800
H812        H  0.93448489  0.29832023  0.37199915     0.08000
H813        H  0.96117807  0.31428008  0.33668576     0.08000
H814        H  0.78922711  0.32090952  0.27752865     0.08000
H815        H  0.81588036  0.33257852  0.24046518     0.08000
H816        H  0.80592918  0.36503041  0.27268899     0.04800
C817        C  0.82322312  0.84759429  0.04109772    -0.21000
C818        C  0.79128720  0.86591719  0.03801233    -0.07600
C819        C  0.78884071  0.90080126  0.05228855     0.13300
C820        C  0.81707646  0.91453169  0.07143033    -0.21100
C821        C  0.84799986  0.89513654  0.07609930    -0.07600
C822        C  0.85144455  0.86152641  0.05998271     0.13300
C823        C  0.88392495  0.83891459  0.06426578    -0.24400
H824        H  0.82548420  0.82122454  0.03022949     0.14500
H825        H  0.81491092  0.94050216  0.08319294     0.14600
C826        C  0.75647091  0.92376961  0.04887249    -0.24400
H827        H  0.88133595  0.81289265  0.05118003     0.04800
H828        H  0.88844288  0.83347639  0.09186665     0.08000
H829        H  0.90707606  0.85251609  0.05298968     0.08000
H830        H  0.73408848  0.91140771  0.06262591     0.08000
H831        H  0.75199737  0.92428656  0.51628491     0.08000
H832        H  0.76035493  0.95049451  0.06023660     0.04800
C833        C  0.85422337  0.84332498  0.19557919    -0.21000
C834        C  0.89066769  0.84036843  0.19010233    -0.07600
C835        C  0.90987211  0.81443326  0.20790485     0.13300
C836        C  0.89204786  0.79127809  0.23014268    -0.21100
C837        C  0.85515168  0.79319795  0.23519326    -0.07600
C838        C  0.83609354  0.82005943  0.21766789     0.13300
C839        C  0.79692714  0.82465027  0.22178338    -0.24400
H840        H  0.83992068  0.86443887  0.18268505     0.14500
H841        H  0.90732207  0.77116961  0.24338123     0.14600
C842        C  0.94923514  0.81175942  0.20396691    -0.24400
H843        H  0.78692899  0.84779389  0.20696242     0.04800
H844        H  0.79041033  0.82911051  0.24919086     0.08000
H845        H  0.78301060  0.80080078  0.21223634     0.08000
H846        H  0.96174435  0.83704038  0.21201137     0.08000
H847        H  0.95593159  0.80652251  0.17673189     0.08000
H848        H  0.96042096  0.78993737  0.21980879     0.04800
C849        C  0.85975590  0.03397893  0.18485304    -0.21000
C850        C  0.89064032  0.04185354  0.16619287    -0.07600
C851        C  0.90267573  0.07719237  0.16496002     0.13300
C852        C  0.88322998  0.10368132  0.18188090    -0.21100
C853        C  0.85309161  0.09542806  0.20146846    -0.07600
C854        C  0.84133203  0.06009668  0.20305823     0.13300
C855        C  0.80934119  0.04981991  0.22365746    -0.24400
H856        H  0.85064216  0.00677722  0.18647136     0.14500
H857        H  0.89258404  0.13085934  0.18114032     0.14600
C858        C  0.93574877  0.08708735  0.14594640    -0.24400
H859        H  0.80288933  0.02123804  0.22066597     0.04800
H860        H  0.78627243  0.06560722  0.21503204     0.08000
H861        H  0.81409437  0.05469437  0.25131181     0.08000
H862        H  0.93370893  0.07859081  0.11878186     0.08000
H863        H  0.95882066  0.07404929  0.15807456     0.08000
H864        H  0.94037074  0.11620444  0.14634103     0.04800
C865        C  0.13960081  0.65403929  0.19875591    -0.21000
C866        C  0.10355554  0.65749345  0.19160147    -0.07600
C867        C  0.08351359  0.68264565  0.20957221     0.13300
C868        C  0.10043685  0.70513091  0.23303665    -0.21100
C869        C  0.13699950  0.70258865  0.23972743    -0.07600
C870        C  0.15657296  0.67578504  0.22278450     0.13300
C871        C  0.19499900  0.66909459  0.22999256    -0.24400
H872        H  0.15439900  0.63320458  0.18606026     0.14500
H873        H  0.08479630  0.72500328  0.24611396     0.14600
C874        C  0.04425770  0.68502826  0.20464599    -0.24400
H875        H  0.20519488  0.64590660  0.21548952     0.04800
H876        H  0.19875923  0.66348444  0.25771288     0.08000
H877        H  0.21102644  0.69231461  0.22232778     0.08000
H878        H  0.03182602  0.65932622  0.21166688     0.08000
H879        H  0.03827502  0.69115202  0.17740430     0.08000
H880        H  0.03237528  0.70613257  0.22080583     0.04800
C881        C  0.26303068  0.76969880  0.36678083    -0.21000
C882        C  0.22783784  0.75928939  0.36096520    -0.07600
C883        C  0.21256287  0.73395461  0.38311687     0.13300
C884        C  0.23290402  0.71938991  0.40976894    -0.21100
C885        C  0.26824803  0.72940862  0.41529641    -0.07600
C886        C  0.28333395  0.75523568  0.39354799     0.13300
C887        C  0.32034035  0.76842661  0.39882673    -0.24400
H888        H  0.27498072  0.78918962  0.34991796     0.14500
H889        H  0.22091852  0.69989781  0.42660877     0.14600
C890        C  0.17530305  0.72129182  0.37836146    -0.24400
H891        H  0.32747406  0.78938434  0.37997315     0.04800
H892        H  0.33924822  0.74617300  0.39570395     0.08000
H893        H  0.32298008  0.77988229  0.42490589     0.08000
H894        H  0.17227016  0.70925750  0.35257478     0.08000
H895        H  0.15682211  0.74396670  0.38111365     0.08000
H896        H  0.16792017  0.70092857  0.39772678     0.04800
C897        C  0.22017546  0.72970850  0.15316970    -0.21000
C898        C  0.22976014  0.76537288  0.15920837    -0.07600
C899        C  0.25951883  0.77924084  0.14240606     0.13300
C900        C  0.27949543  0.75687601  0.12133769    -0.21100
C901        C  0.26969850  0.72127339  0.11495884    -0.07600
C902        C  0.23982263  0.70746581  0.13167255     0.13300
C903        C  0.22772232  0.66988725  0.12630043    -0.24400
H904        H  0.19730334  0.71887133  0.16608760     0.14500
H905        H  0.30218667  0.76793236  0.10823737     0.14600
C906        C  0.27049116  0.81737320  0.14646759    -0.24400
H907        H  0.20435306  0.66331827  0.14221026     0.04800
H908        H  0.24911109  0.65106163  0.13316382     0.08000
H909        H  0.22026842  0.66639115  0.09918104     0.08000
H910        H  0.27633301  0.82275541  0.17363531     0.08000
H911        H  0.24894613  0.83515710  0.13774284     0.08000
H912        H  0.29442714  0.82374236  0.13128503     0.04800
C913        C  0.09048907  0.88639728  0.20439103    -0.21000
C914        C  0.08823877  0.84957987  0.20938494    -0.07600
C915        C  0.06305020  0.82999929  0.19119628     0.13300
C916        C  0.03983829  0.84795793  0.16906486    -0.21100
C917        C  0.04157725  0.88517993  0.16405384    -0.07600
C918        C  0.06774215  0.90452812  0.18198032     0.13300
C919        C  0.07226240  0.94410121  0.17804023    -0.24400
H920        H  0.11093363  0.90098241  0.21765593     0.14500
H921        H  0.02012217  0.83261652  0.15563101     0.14600
C922        C  0.06115574  0.79019585  0.19474100    -0.24400
H923        H  0.09479618  0.95416187  0.19328846     0.04800
H924        H  0.04844401  0.95813622  0.18722873     0.08000
H925        H  0.07738318  0.95083301  0.15076095     0.08000
H926        H  0.05589001  0.78302629  0.22189134     0.08000
H927        H  0.08650858  0.77809773  0.18668531     0.08000
H928        H  0.03989085  0.77876116  0.17869404     0.04800
C929        C  0.08573093  0.18542103  0.32002774    -0.21000
C930        C  0.10688027  0.15843860  0.33337547    -0.07600
C931        C  0.14289404  0.15700293  0.32417962     0.13300
C932        C  0.15668861  0.18212097  0.30122161    -0.21100
C933        C  0.13550427  0.20875491  0.28670260    -0.07600
C934        C  0.09938546  0.21075146  0.29697977     0.13300
C935        C  0.07450436  0.23904273  0.28401051    -0.24400
H936        H  0.05806591  0.18592703  0.32682873     0.14500
H937        H  0.18436743  0.18085363  0.29465503     0.14600
C938        C  0.16703592  0.12880651  0.33845725    -0.24400
H939        H  0.04734354  0.23526522  0.29389335     0.04800
H940        H  0.07316597  0.23822510  0.25559003     0.08000
H941        H  0.08331665  0.26559981  0.29273856     0.08000
H942        H  0.15904270  0.10228775  0.32903434     0.08000
H943        H  0.16598615  0.12909978  0.36686083     0.08000
H944        H  0.19479985  0.13311364  0.33060027     0.04800
C945        C  0.14180580  0.12396868  0.46989720    -0.21000
C946        C  0.14996923  0.09740545  0.44563919    -0.07600
C947        C  0.18520840  0.08645630  0.44170228     0.13300
C948        C  0.21120553  0.10256632  0.46168095    -0.21100
C949        C  0.20338403  0.13068365  0.48421946    -0.07600
C950        C  0.16820269  0.14126756  0.48869621     0.13300
C951        C  0.15639943  0.17256420  0.00887872    -0.24400
H952        H  0.11475983  0.13256386  0.47294408     0.14500
H953        H  0.23833585  0.09460917  0.45789007     0.14600
C954        C  0.19583855  0.05820582  0.41636671    -0.24400
H955        H  0.12754688  0.17724970  0.00833135     0.04800
H956        H  0.16938867  0.19693878  0.99911601     0.08000
H957        H  0.16431554  0.16789382  0.03592403     0.08000
H958        H  0.19109268  0.06763093  0.38978946     0.08000
H959        H  0.18059760  0.03356122  0.42118755     0.08000
H960        H  0.22424470  0.05155959  0.41838278     0.04800
C961        C  0.97889917  0.01413430  0.03498327    -0.21000
C962        C  0.98688676  0.97770293  0.03962595    -0.07600
C963        C  0.00669859  0.96028159  0.01409229     0.13300
C964        C  0.01773252  0.97949364  0.98503888    -0.21100
C965        C  0.00886917  0.01586383  0.47898067    -0.07600
C966        C  0.99355201  0.03413110  0.50682272     0.13300
C967        C  0.98861114  0.07387403  0.50647791    -0.24400
H968        H  0.96371334  0.02791879  0.05436749     0.14500
H969        H  0.03298053  0.96572954  0.96568653     0.14600
C970        C  0.01709680  0.92178732  0.01743590    -0.24400
H971        H  0.97559394  0.08352446  0.53020301     0.04800
H972        H  0.97183177  0.08175203  0.48442658     0.08000
H973        H  0.01457141  0.08721378  0.50463121     0.08000
H974        H  0.99320353  0.90489313  0.01821759     0.08000
H975        H  0.03270813  0.91778380  0.04119632     0.08000
H976        H  0.03340757  0.91282475  0.99545018     0.04800
C977        C  0.02591763  0.98005063  0.27786384    -0.21000
C978        C  0.02708306  0.01725514  0.27762850    -0.07600
C979        C  0.00241333  0.03638092  0.25781655     0.13300
C980        C  0.97619050  0.01799948  0.23985815    -0.21100
C981        C  0.97458461  0.98076946  0.24049496    -0.07600
C982        C  0.00017264  0.96159843  0.25936003     0.13300
C983        C  0.00034756  0.92152915  0.25979081    -0.24400
H984        H  0.04392236  0.96542628  0.29424662     0.14500
H985        H  0.95841226  0.03264297  0.22326126     0.14600
C986        C  0.00442883  0.07628151  0.25522659    -0.24400
H987        H  0.02146274  0.91080157  0.27659140     0.04800
H988        H  0.00481868  0.91101796  0.23359670     0.08000
H989        H  0.97468557  0.91166878  0.26949592     0.08000
H990        H  0.03038413  0.08399493  0.24449295     0.08000
H991        H  0.00144900  0.08857230  0.28084972     0.08000
H992        H  0.98361359  0.08721535  0.23822077     0.04800
C993        C  0.94512932  0.09388221  0.32727140    -0.21000
C994        C  0.95729694  0.11154893  0.35656449    -0.07600
C995        C  0.94608339  0.14688821  0.36262502     0.13300
C996        C  0.92260452  0.16322638  0.33955501    -0.21100
C997        C  0.91104779  0.14571172  0.30993680    -0.07600
C998        C  0.92258968  0.11061720  0.30372043     0.13300
C999        C  0.91013760  0.09012234  0.27299325    -0.24400
H1000       H  0.95386257  0.06697151  0.32234400     0.14500
H1001       H  0.91253243  0.18957996  0.34500975     0.14600
C1002       C  0.95758093  0.16701531  0.39402064    -0.24400
H1003       H  0.92250568  0.06345045  0.27156974     0.04800
H1004       H  0.91683394  0.10484369  0.24918790     0.08000
H1005       H  0.88135873  0.08611339  0.27466717     0.08000
H1006       H  0.98627598  0.17220292  0.39300868     0.08000
H1007       H  0.95122731  0.15141372  0.41742216     0.08000
H1008       H  0.94411719  0.19313949  0.39598335     0.04800
C1009       C  0.11160941  0.89302689  0.33514275    -0.21000
C1010       C  0.14285093  0.90021952  0.31699957    -0.07600
C1011       C  0.15703376  0.93463215  0.31752371     0.13300
C1012       C  0.13946937  0.96115764  0.33602195    -0.21100
C1013       C  0.10738937  0.95442865  0.35315899    -0.07600
C1014       C  0.09335448  0.91981062  0.35272455     0.13300
C1015       C  0.05944989  0.91085809  0.37079268    -0.24400
H1016       H  0.10076521  0.86641476  0.33458239     0.14500
H1017       H  0.15027008  0.98778054  0.33586083     0.14600
C1018       C  0.19080786  0.94328029  0.29911032    -0.24400
H1019       H  0.05361806  0.88199496  0.36955906     0.04800
H1020       H  0.03717430  0.92511248  0.35854248     0.08000
H1021       H  0.06124848  0.91847885  0.39822027     0.08000
H1022       H  0.18755803  0.93914282  0.27113122     0.08000
H1023       H  0.21220402  0.92586204  0.30882733     0.08000
H1024       H  0.19879886  0.97131994  0.30313376     0.04800
C1025       C  0.36118893  0.84072003  0.06931525    -0.21000
C1026       C  0.39477607  0.83359585  0.08283880    -0.07600
C1027       C  0.41230899  0.80235674  0.07334042     0.13300
C1028       C  0.39576835  0.77888105  0.05052690    -0.21100
C1029       C  0.36194400  0.78576308  0.03677757    -0.07600
C1030       C  0.34450127  0.81740208  0.04653306     0.13300
C1031       C  0.32261931  0.82869886  0.51013244    -0.24400
H1032       H  0.34807265  0.86525714  0.07633897     0.14500
H1033       H  0.40957006  0.75488492  0.04346215     0.14600
C1034       C  0.44888153  0.79457952  0.08607372    -0.24400
H1035       H  0.31917208  0.85798259  0.51095803     0.04800
H1036       H  0.29705511  0.81654179  0.51725174     0.08000
H1037       H  0.32960313  0.82128108  0.48344078     0.08000
H1038       H  0.44888824  0.79317750  0.11451304     0.08000
H1039       H  0.46690283  0.81600628  0.07752335     0.08000
H1040       H  0.45904676  0.76896146  0.07603140     0.04800
C1041       C  0.47300945  0.00928254  0.24036763    -0.21000
C1042       C  0.48508062  0.97435193  0.23415675    -0.07600
C1043       C  0.51158383  0.96023418  0.25554462     0.13300
C1044       C  0.52475591  0.98105755  0.28254463    -0.21100
C1045       C  0.51262178  0.01597486  0.28870104    -0.07600
C1046       C  0.48648171  0.03023817  0.26705627     0.13300
C1047       C  0.47192646  0.06705436  0.27241169    -0.24400
H1048       H  0.45290100  0.02054913  0.22389095     0.14500
H1049       H  0.54477212  0.96983940  0.29917012     0.14600
C1050       C  0.52692905  0.92386718  0.24950045    -0.24400
H1051       H  0.45107476  0.07363384  0.25348540     0.04800
H1052       H  0.49326444  0.08692753  0.26944994     0.08000
H1053       H  0.46028235  0.06915899  0.29845171     0.08000
H1054       H  0.53845038  0.92252583  0.22335369     0.08000
H1055       H  0.50609119  0.90343615  0.25223339     0.08000
H1056       H  0.54806922  0.91747281  0.26818575     0.04800
C1057       C  0.50679725  0.96239995  0.52264189    -0.21000
C1058       C  0.47382015  0.97654579  0.03308761    -0.07600
C1059       C  0.45980052  0.00671641  0.01669899     0.13300
C1060       C  0.48135751  0.02648613  0.99463317    -0.21100
C1061       C  0.52146245  0.01537857  0.49005309    -0.07600
C1062       C  0.53080911  0.98141548  0.50238700     0.13300
C1063       C  0.56524592  0.96431001  0.49319565    -0.24400
H1064       H  0.51450735  0.93669728  0.53284731     0.14500
H1065       H  0.47001163  0.04899142  0.98115440     0.14600
C1066       C  0.42266358  0.01889127  0.02299109    -0.24400
H1067       H  0.56891436  0.93830894  0.50627759     0.04800
H1068       H  0.58741972  0.98185270  0.50054888     0.08000
H1069       H  0.56563521  0.95944352  0.46534167     0.08000
H1070       H  0.41923809  0.02525537  0.05043223     0.08000
H1071       H  0.40389093  0.99775302  0.01547031     0.08000
H1072       H  0.41636914  0.04322443  0.00814957     0.04800
C1073       C  0.39935404  0.06824772  0.10730864    -0.21000
C1074       C  0.38244617  0.03532192  0.11007542    -0.07600
C1075       C  0.34799841  0.03170922  0.09573231     0.13300
C1076       C  0.33321945  0.05990638  0.07699111    -0.21100
C1077       C  0.35095219  0.09196626  0.07292072    -0.07600
C1078       C  0.38401942  0.09667577  0.08926227     0.13300
C1079       C  0.40435417  0.13091604  0.08642403    -0.24400
H1080       H  0.42537501  0.07135586  0.11824000     0.14500
H1081       H  0.30770520  0.05679859  0.06495485     0.14600
C1082       C  0.32661277  0.99807764  0.09833252    -0.24400
H1083       H  0.43017856  0.12926379  0.09964962     0.04800
H1084       H  0.38934185  0.15286937  0.09849567     0.08000
H1085       H  0.40950381  0.13715118  0.05907263     0.08000
H1086       H  0.32283440  0.99060591  0.12564410     0.08000
H1087       H  0.33977105  0.97641921  0.08405343     0.08000
H1088       H  0.30000883  0.00123336  0.08694496     0.04800
C1089       C  0.32046193  0.83537106  0.22545095    -0.21000
C1090       C  0.29125704  0.85614542  0.23459384    -0.07600
C1091       C  0.29158977  0.89311107  0.22600304     0.13300
C1092       C  0.31949088  0.90703015  0.20645761    -0.21100
C1093       C  0.34701881  0.88541688  0.19535382    -0.07600
C1094       C  0.34790219  0.84930697  0.20549885     0.13300
C1095       C  0.37665274  0.82463852  0.19365015    -0.24400
H1096       H  0.32072181  0.80734555  0.23184226     0.14500
H1097       H  0.31963533  0.93488884  0.19934304     0.14600
C1098       C  0.26272094  0.91843400  0.23642629    -0.24400
H1099       H  0.37291694  0.79720497  0.20352913     0.04800
H1100       H  0.40256767  0.83411603  0.20286736     0.08000
H1101       H  0.37651489  0.82330332  0.16524833     0.08000
H1102       H  0.25899765  0.91728932  0.26462393     0.08000
H1103       H  0.23787445  0.91181917  0.22301036     0.08000
H1104       H  0.26910495  0.94636040  0.22962588     0.04800
C1105       C  0.59204494  0.89116458  0.07147703    -0.21000
C1106       C  0.58866611  0.85537355  0.06192640    -0.07600
C1107       C  0.56130014  0.83498105  0.07582223     0.13300
C1108       C  0.53819959  0.85068765  0.09947366    -0.21100
C1109       C  0.54119333  0.88676847  0.10928771    -0.07600
C1110       C  0.56863688  0.90728934  0.09466106     0.13300
C1111       C  0.57402465  0.94588462  0.10333115    -0.24400
H1112       H  0.61380437  0.90643296  0.06115310     0.14500
H1113       H  0.51748736  0.83441234  0.11023190     0.14600
C1114       C  0.55690787  0.79656381  0.06615220    -0.24400
H1115       H  0.59742204  0.95711828  0.09013783     0.04800
H1116       H  0.57810363  0.94882413  0.13135876     0.08000
H1117       H  0.55092989  0.96177323  0.09511255     0.08000
H1118       H  0.58104843  0.78137283  0.07277530     0.08000
H1119       H  0.54830758  0.81388785  0.51697344     0.08000
H1120       H  0.53430048  0.78413372  0.07964486     0.04800
O1121       O  0.38429422  0.97313331  0.62683719    -0.82500
C1122       C  0.50999452  0.90073651  0.62995721     0.96800
O1123       O  0.50878015  0.93312718  0.63913300    -0.71600
O1124       O  0.47801301  0.95494260  0.58609464    -0.75200
Al1125     Al  0.46816525  0.96380601  0.63104466     1.49000
C1126       C  0.45696210  0.96108828  0.56241463     0.92100
O1127       O  0.41287746  0.89022471  0.58343809    -0.81500
O1128       O  0.40252451  0.90111438  0.68449824    -0.75000
Al1129     Al  0.40006147  0.93152938  0.60602862     1.90100
O1130       O  0.42039900  0.85780823  0.62958718    -0.74100
O1131       O  0.46879001  0.92050592  0.69604372    -0.73900
O1132       O  0.48480939  0.88053588  0.63697256    -0.79600
O1133       O  0.46117074  0.97480298  0.67659878    -0.77800
O1134       O  0.43712006  0.92938598  0.63269211    -1.13900
O1135       O  0.43376533  0.00157488  0.62026982    -0.73100
C1136       C  0.40017997  0.00156552  0.62098913     0.97600
C1137       C  0.41147019  0.86060047  0.59813051     0.94000
Al1138     Al  0.44400128  0.89257694  0.66009368     1.55600
O1139       O  0.42391860  0.95748017  0.56742138    -0.77800
C1140       C  0.46908870  0.95416586  0.70065461     0.98200
C1141       C  0.37292365  0.89870515  0.67028229     0.93000
O1142       O  0.36901218  0.90635821  0.63860022    -0.83100
O1143       O  0.10369454  0.00520617  0.88039209    -0.82500
C1144       C  0.98552257  0.09117255  0.87572543     0.96800
O1145       O  0.98424576  0.05846749  0.88346896    -0.71600
O1146       O  0.01786298  0.03670969  0.83112424    -0.75200
Al1147     Al  0.02238607  0.02491741  0.87657150     1.49000
C1148       C  0.04050040  0.02787538  0.80959785     0.92100
O1149       O  0.09280220  0.09152487  0.83483248    -0.81500
O1150       O  0.09012628  0.08141894  0.93533375    -0.75000
Al1151     Al  0.09642964  0.04891111  0.85837869     1.90100
O1152       O  0.07917706  0.12533192  0.87888237    -0.74100
O1153       O  0.02322914  0.06630732  0.94271437    -0.73900
O1154       O  0.01254975  0.10871323  0.88267994    -0.79600
O1155       O  0.02462600  0.01191968  0.92225912    -0.77800
O1156       O  0.05700239  0.05575534  0.88123138    -1.13900
O1157       O  0.05255713  0.98380496  0.86642916    -0.73100
C1158       C  0.08552184  0.97960730  0.87001447     0.97600
C1159       C  0.09180290  0.12144792  0.84878760     0.94000
Al1160     Al  0.05136985  0.09284037  0.90808495     1.55600
O1161       O  0.07310942  0.02696082  0.81758887    -0.77800
C1162       C  0.01989913  0.03269694  0.94701637     0.98200
C1163       C  0.12106271  0.08013645  0.92410319     0.93000
O1164       O  0.12692653  0.07013527  0.89345091    -0.83100
O1165       O  0.23054807  0.85370548  0.75131076    -0.82500
C1166       C  0.15228616  0.73035772  0.75693129     0.96800
O1167       O  0.18452626  0.73012398  0.76567551    -0.71600
O1168       O  0.20565719  0.76040380  0.71189898    -0.75200
Al1169     Al  0.21653334  0.76955998  0.75647094     1.49000
C1170       C  0.21322494  0.78109369  0.68808717     0.92100
O1171       O  0.14603724  0.82923134  0.70954744    -0.81500
O1172       O  0.15898127  0.83896672  0.81003006    -0.75000
Al1173     Al  0.18786820  0.84006705  0.73145545     1.90100
O1174       O  0.11418394  0.82316420  0.75607310    -0.74100
O1175       O  0.17539756  0.77175177  0.82233171    -0.73900
O1176       O  0.13363199  0.75691280  0.76367148    -0.79600
O1177       O  0.22904537  0.77610082  0.80173687    -0.77800
O1178       O  0.18428611  0.80279904  0.75848190    -1.13900
O1179       O  0.25538090  0.80195487  0.74453747    -0.73100
C1180       C  0.25755154  0.83577622  0.74485223     0.97600
C1181       C  0.11695753  0.83188786  0.72449398     0.94000
Al1182     Al  0.14804368  0.79770821  0.78634261     1.55600
O1183       O  0.21144481  0.81457565  0.69290145    -0.77800
C1184       C  0.20882535  0.76996469  0.82645997     0.98200
C1185       C  0.15673858  0.86873860  0.79553620     0.93000
O1186       O  0.16476826  0.87255512  0.76396653    -0.83100
O1187       O  0.86919916  0.91805009  0.62778409    -0.82500
C1188       C  0.01025870  0.90258486  0.64282722     0.96800
O1189       O  0.98365530  0.88448303  0.63578860    -0.71600
O1190       O  0.91769804  0.86599946  0.64071209    -0.75200
Al1191     Al  0.94462790  0.89926542  0.61094651     1.49000
C1192       C  0.90615899  0.86937261  0.67133385     0.92100
O1193       O  0.92314005  0.96483411  0.70185943    -0.81500
O1194       O  0.94002755  0.00853535  0.65172759    -0.75000
Al1195     Al  0.89979355  0.94119090  0.66192929     1.90100
O1196       O  0.97823371  0.95719693  0.68689338    -0.74100
O1197       O  0.96856990  0.98067807  0.59590879    -0.73900
O1198       O  0.01114028  0.93526120  0.63457294    -0.79600
O1199       O  0.97200635  0.92639206  0.57578909    -0.77800
O1200       O  0.93857752  0.93617430  0.63787198    -1.13900
O1201       O  0.90523394  0.90987462  0.58442647    -0.73100
C1202       C  0.87481617  0.90862406  0.59686013     0.97600
C1203       C  0.95595155  0.96505751  0.70902044     0.94000
Al1204     Al  0.97207335  0.96822622  0.64159625     1.55600
O1205       O  0.90690535  0.89911709  0.68567119    -0.77800
C1206       C  0.97451184  0.96008290  0.57129474     0.98200
C1207       C  0.90671007  0.01082392  0.64860470     0.93000
O1208       O  0.88952650  0.98397913  0.63974508    -0.83100
O1209       O  0.82554679  0.11631145  0.75192600    -0.82500
C1210       C  0.83965942  0.25763807  0.77040002     0.96800
O1211       O  0.85836898  0.23178356  0.76140080    -0.71600
O1212       O  0.87780538  0.16535488  0.76239501    -0.75200
Al1213     Al  0.84348719  0.19264738  0.73550799     1.49000
C1214       C  0.87646406  0.15434565  0.79321616     0.92100
O1215       O  0.78230844  0.16815572  0.82859362    -0.81500
O1216       O  0.73660046  0.18609027  0.77944326    -0.75000
Al1217     Al  0.80436817  0.14574865  0.78764951     1.90100
O1218       O  0.78771216  0.22410866  0.81395543    -0.74100
O1219       O  0.76221017  0.21590505  0.72323926    -0.73900
O1220       O  0.80750982  0.25826842  0.76160047    -0.79600
O1221       O  0.81573817  0.22087415  0.70228031    -0.77800
O1222       O  0.80771596  0.18527892  0.76364176    -1.13900
O1223       O  0.83241324  0.15323667  0.70860395    -0.73100
C1224       C  0.83349627  0.12221594  0.72066987     0.97600
C1225       C  0.78078334  0.20111527  0.83591092     0.94000
Al1226     Al  0.77567890  0.21865796  0.76884269     1.55600
O1227       O  0.84775337  0.15307216  0.80915731    -0.77800
C1228       C  0.78235789  0.22198057  0.69838866     0.98200
C1229       C  0.73394324  0.15254165  0.77661688     0.93000
O1230       O  0.76053899  0.13461388  0.76832183    -0.83100
O1231       O  0.16484278  0.37411328  0.75631951    -0.82500
C1232       C  0.15069461  0.23235720  0.76301821     0.96800
O1233       O  0.13269302  0.25929470  0.75600450    -0.71600
O1234       O  0.11368637  0.32609719  0.76316993    -0.75200
Al1235     Al  0.14802617  0.29997642  0.73367700     1.49000
C1236       C  0.11530192  0.33405469  0.79499448     0.92100
O1237       O  0.21018656  0.31518189  0.82824961    -0.81500
O1238       O  0.25497909  0.30345465  0.77617090    -0.75000
Al1239     Al  0.18679440  0.34138401  0.78940273     1.90100
O1240       O  0.20522586  0.26099375  0.80889531    -0.74100
O1241       O  0.22866592  0.27793915  0.71907603    -0.73900
O1242       O  0.18327963  0.23192245  0.75509611    -0.79600
O1243       O  0.17536121  0.27345891  0.69829661    -0.77800
O1244       O  0.18357561  0.30430377  0.76235328    -1.13900
O1245       O  0.16058328  0.34096687  0.71011961    -0.73100
C1246       C  0.15796924  0.37065671  0.72448218     0.97600
C1247       C  0.21235439  0.28157076  0.83272790     0.94000
Al1248     Al  0.21588554  0.27099530  0.76429489     1.55600
O1249       O  0.14389558  0.33134891  0.81094861    -0.77800
C1250       C  0.20874593  0.27116480  0.69439376     0.98200
C1251       C  0.25640252  0.33730151  0.77587675     0.93000
O1252       O  0.22922386  0.35496133  0.76972509    -0.83100
O1253       O  0.12450276  0.57393053  0.63189150    -0.82500
C1254       C  0.98279045  0.59068731  0.63953665     0.96800
O1255       O  0.00989476  0.60862563  0.63343742    -0.71600
O1256       O  0.07620558  0.62646188  0.64132775    -0.75200
Al1257     Al  0.05043230  0.59325991  0.61074048     1.49000
C1258       C  0.08555173  0.62304152  0.67267505     0.92100
O1259       O  0.06643926  0.52745941  0.70327785    -0.81500
O1260       O  0.05182200  0.48431194  0.65279699    -0.75000
Al1261     Al  0.09182168  0.55123594  0.66443537     1.90100
O1262       O  0.01220654  0.53562757  0.68608386    -0.74100
O1263       O  0.02612706  0.51194754  0.59573567    -0.73900
O1264       O  0.98227233  0.55791633  0.63185335    -0.79600
O1265       O  0.02449416  0.56624111  0.57479045    -0.77800
O1266       O  0.05448877  0.55646026  0.63844909    -1.13900
O1267       O  0.09145096  0.58189083  0.58639800    -0.73100
C1268       C  0.12128447  0.58233769  0.60035987     0.97600
C1269       C  0.03334210  0.52684177  0.70899250     0.94000
Al1270     Al  0.02058047  0.52466312  0.64100733     1.55600
O1271       O  0.08337732  0.59340225  0.68730587    -0.77800
C1272       C  0.02101830  0.53259881  0.57093613     0.98200
C1273       C  0.08524422  0.48187674  0.65139540     0.93000
O1274       O  0.10295973  0.50854969  0.64294551    -0.83100
O1275       O  0.88686693  0.47998449  0.87934190    -0.82500
C1276       C  0.00984009  0.40002040  0.88152476     0.96800
O1277       O  0.00991414  0.43323021  0.88739846    -0.71600
O1278       O  0.97627616  0.45211078  0.83396165    -0.75200
Al1279     Al  0.97026918  0.46514300  0.87923604     1.49000
C1280       C  0.95348030  0.45858612  0.81181834     0.92100
O1281       O  0.90685507  0.39238646  0.83981271    -0.81500
O1282       O  0.90384170  0.40880487  0.93997816    -0.75000
Al1283     Al  0.89847529  0.43579693  0.86053156     1.90100
O1284       O  0.91750862  0.36189364  0.88679393    -0.74100
O1285       O  0.97091686  0.42672897  0.94746018    -0.73900
O1286       O  0.98363334  0.38188173  0.89008360    -0.79600
O1287       O  0.96725006  0.48010295  0.92475749    -0.77800
O1288       O  0.93726054  0.43286315  0.88504530    -1.13900
O1289       O  0.93753607  0.50409790  0.86750684    -0.73100
C1290       C  0.90411187  0.50654939  0.86969418     0.97600
C1291       C  0.90632581  0.36353697  0.85596063     0.94000
Al1292     Al  0.94390206  0.39742107  0.91415811     1.55600
O1293       O  0.92090089  0.45749639  0.81945988    -0.77800
C1294       C  0.97361434  0.46054488  0.95021789     0.98200
C1295       C  0.87346498  0.40732104  0.92724719     0.93000
O1296       O  0.86838781  0.41457919  0.89573773    -0.83100
O1297       O  0.32904885  0.61030750  0.50505018    -0.82500
C1298       C  0.34503983  0.75206928  0.51509208     0.96800
O1299       O  0.36326461  0.73076593  0.00776674    -0.71600
O1300       O  0.38126093  0.65808269  0.51235071    -0.75200
Al1301     Al  0.34763804  0.69089397  0.98376978     1.49000
C1302       C  0.37962235  0.64868126  0.54376677     0.92100
O1303       O  0.28647885  0.66795432  0.57935779    -0.81500
O1304       O  0.24062613  0.68240531  0.52966271    -0.75000
Al1305     Al  0.30807366  0.64243627  0.53942083     1.90100
O1306       O  0.29311576  0.72218426  0.56089993    -0.74100
O1307       O  0.26658467  0.71496793  0.97087192    -0.73900
O1308       O  0.31264661  0.75283278  0.50694172    -0.79600
O1309       O  0.31993800  0.71844131  0.94921579    -0.77800
O1310       O  0.31152170  0.68017579  0.51305941    -1.13900
O1311       O  0.33573964  0.65093081  0.95844047    -0.73100
C1312       C  0.33670082  0.62033875  0.97132081     0.97600
C1313       C  0.28524766  0.70146602  0.58453276     0.94000
Al1314     Al  0.28011636  0.71406215  0.51670542     1.55600
O1315       O  0.35116956  0.65147263  0.55986641    -0.77800
C1316       C  0.28644342  0.72085735  0.94579530     0.98200
C1317       C  0.23784136  0.64866953  0.52878154     0.93000
O1318       O  0.26421574  0.63014762  0.52119386    -0.83100
O1319       O  0.73126116  0.35328842  0.00087655    -0.82500
C1320       C  0.65666150  0.23208709  0.50330386     0.96800
O1321       O  0.68949943  0.23133507  0.50941284    -0.71600
O1322       O  0.70587990  0.26276792  0.95603457    -0.75200
Al1323     Al  0.71653124  0.26938892  0.00139829     1.49000
C1324       C  0.71347744  0.28523146  0.93375239     0.92100
O1325       O  0.64617549  0.33413850  0.95708042    -0.81500
O1326       O  0.66635801  0.33773902  0.56147166    -0.75000
Al1327     Al  0.68858183  0.34179620  0.97993744     1.90100
O1328       O  0.62132876  0.32667912  0.50632341    -0.74100
O1329       O  0.68121431  0.27025472  0.56899987    -0.73900
O1330       O  0.63896529  0.25920239  0.51037577    -0.79600
O1331       O  0.73506521  0.27290202  0.54828773    -0.77800
O1332       O  0.69084650  0.30458180  0.50725838    -1.13900
O1333       O  0.75590618  0.30192980  0.99118998    -0.73100
C1334       C  0.75823878  0.33555316  0.99371696     0.97600
C1335       C  0.61696690  0.33400608  0.97213424     0.94000
Al1336     Al  0.65453871  0.29857298  0.53490379     1.55600
O1337       O  0.71200361  0.31832778  0.94037369    -0.77800
C1338       C  0.71453515  0.26800576  0.57308955     0.98200
C1339       C  0.66614628  0.36869213  0.54947430     0.93000
O1340       O  0.67443413  0.37446635  0.51838402    -0.83100
O1341       O  0.36657823  0.41674063  0.87601499    -0.82500
C1342       C  0.50711656  0.39730459  0.88850510     0.96800
O1343       O  0.48008415  0.37995485  0.88112705    -0.71600
O1344       O  0.41351152  0.36286802  0.88607822    -0.75200
Al1345     Al  0.44075807  0.39623263  0.85706694     1.49000
C1346       C  0.40347534  0.36538813  0.91722510     0.92100
O1347       O  0.42222256  0.46015961  0.95006050    -0.81500
O1348       O  0.43914477  0.50461940  0.89963248    -0.75000
Al1349     Al  0.39785743  0.43788728  0.91004368     1.90100
O1350       O  0.47677238  0.45246075  0.93382879    -0.74100
O1351       O  0.46619071  0.47723410  0.84308925    -0.73900
O1352       O  0.50834647  0.43018654  0.88086132    -0.79600
O1353       O  0.46860248  0.42304317  0.82240517    -0.77800
O1354       O  0.43601878  0.43263652  0.88505649    -1.13900
O1355       O  0.40091845  0.40878082  0.83144442    -0.73100
C1356       C  0.37067801  0.40856747  0.84460760     0.97600
C1357       C  0.45515562  0.46038302  0.95662506     0.94000
Al1358     Al  0.47011001  0.46397185  0.88869774     1.55600
O1359       O  0.40437263  0.39463223  0.93256286    -0.77800
C1360       C  0.47208269  0.45663911  0.81849987     0.98200
C1361       C  0.40587625  0.50789232  0.89725556     0.93000
O1362       O  0.38781324  0.48141909  0.88910940    -0.83100
O1363       O  0.25883226  0.13231453  0.00864045    -0.82500
C1364       C  0.34129199  0.25445947  0.50253180     0.96800
O1365       O  0.30867541  0.25578555  0.50980502    -0.71600
O1366       O  0.28335069  0.22035063  0.95805354    -0.75200
Al1367     Al  0.27408818  0.21587568  0.00363220     1.49000
C1368       C  0.27536354  0.19716481  0.93671129     0.92100
O1369       O  0.34214138  0.14834865  0.96089095    -0.81500
O1370       O  0.33305397  0.14856199  0.56191406    -0.75000
Al1371     Al  0.30090242  0.14225725  0.98552541     1.90100
O1372       O  0.37705266  0.16148421  0.50609349    -0.74100
O1373       O  0.31704412  0.21603261  0.57021593    -0.73900
O1374       O  0.35855534  0.22754939  0.51081618    -0.79600
O1375       O  0.26344105  0.21349193  0.54956387    -0.77800
O1376       O  0.30754671  0.18225267  0.50811327    -1.13900
O1377       O  0.23426736  0.18300566  0.99583654    -0.73100
C1378       C  0.23202799  0.14946797  0.99977626     0.97600
C1379       C  0.37199607  0.14994652  0.97440824     0.94000
Al1380     Al  0.34381489  0.18832077  0.53545227     1.55600
O1381       O  0.27642773  0.16424794  0.94492612    -0.77800
C1382       C  0.28373753  0.21911028  0.57425125     0.98200
C1383       C  0.33437770  0.11784358  0.54964853     0.93000
O1384       O  0.32537943  0.11214416  0.51867986    -0.83100
O1385       O  0.62215725  0.07407887  0.87569423    -0.82500
C1386       C  0.48150765  0.09190995  0.88771058     0.96800
O1387       O  0.50806285  0.10987167  0.87992667    -0.71600
O1388       O  0.57452163  0.12820657  0.88462578    -0.75200
Al1389     Al  0.54775192  0.09404046  0.85615502     1.49000
C1390       C  0.58400121  0.12607225  0.91595363     0.92100
O1391       O  0.56591450  0.03213197  0.95042077    -0.81500
O1392       O  0.54976551  0.98630478  0.90083811    -0.75000
Al1393     Al  0.59061240  0.05344143  0.91022446     1.90100
O1394       O  0.51148832  0.03856019  0.93355459    -0.74100
O1395       O  0.52386316  0.01236130  0.84352457    -0.73900
O1396       O  0.48064879  0.05927472  0.87949050    -0.79600
O1397       O  0.52063790  0.06631109  0.82180752    -0.77800
O1398       O  0.55278571  0.05786949  0.88471723    -1.13900
O1399       O  0.58778790  0.08198581  0.83093398    -0.73100
C1400       C  0.61792675  0.08227416  0.84420969     0.97600
C1401       C  0.53294556  0.03134460  0.95673748     0.94000
Al1402     Al  0.51892739  0.02628862  0.88870969     1.55600
O1403       O  0.58313042  0.09694005  0.93155524    -0.77800
C1404       C  0.51821035  0.03256207  0.81848324     0.98200
C1405       C  0.58297700  0.98276080  0.89907704     0.93000
O1406       O  0.60140273  0.00918856  0.89108138    -0.83100
O1407       O  0.66661662  0.87703645  0.50444422    -0.82500
C1408       C  0.65461859  0.73416183  0.51628585     0.96800
O1409       O  0.63761401  0.76266913  0.00800397    -0.71600
O1410       O  0.61584052  0.82745887  0.51428464    -0.75200
Al1411     Al  0.65183059  0.80327155  0.98423196     1.49000
C1412       C  0.61824625  0.83768752  0.54535745     0.92100
O1413       O  0.71189487  0.82348483  0.57816108    -0.81500
O1414       O  0.75764984  0.80877654  0.52738821    -0.75000
Al1415     Al  0.68911565  0.84648015  0.53839699     1.90100
O1416       O  0.70902430  0.76789650  0.56212336    -0.74100
O1417       O  0.73343172  0.78208068  0.97082219    -0.73900
O1418       O  0.68749292  0.73474194  0.50981884    -0.79600
O1419       O  0.68005780  0.77653933  0.95011814    -0.77800
O1420       O  0.68619123  0.80783218  0.51339660    -1.13900
O1421       O  0.66250818  0.84402902  0.95875325    -0.73100
C1422       C  0.65923512  0.87429229  0.97187868     0.97600
C1423       C  0.71419130  0.79047571  0.58486040     0.94000
Al1424     Al  0.71909600  0.77517283  0.51694130     1.55600
O1425       O  0.64724544  0.83674272  0.56052165    -0.77800
C1426       C  0.71343131  0.77447596  0.94636326     0.98200
C1427       C  0.75900558  0.84262515  0.52579711     0.93000
O1428       O  0.73174933  0.85958341  0.51822387    -0.83100
O1429       O  0.76120105  0.63567065  0.75555555    -0.82500
C1430       C  0.83780268  0.76003818  0.75312810     0.96800
O1431       O  0.80592321  0.75994402  0.76316954    -0.71600
O1432       O  0.78171104  0.72813459  0.71175644    -0.75200
Al1433     Al  0.77400942  0.71958644  0.75689527     1.49000
C1434       C  0.77455938  0.70658441  0.68869938     0.92100
O1435       O  0.84270636  0.65803514  0.70707535    -0.81500
O1436       O  0.83663074  0.65155002  0.80855698    -0.75000
Al1437     Al  0.80222006  0.64853541  0.73217565     1.90100
O1438       O  0.87692523  0.66814889  0.75120725    -0.74100
O1439       O  0.81917340  0.71881248  0.82023506    -0.73900
O1440       O  0.85684443  0.73356789  0.75906443    -0.79600
O1441       O  0.76445867  0.71362420  0.80288458    -0.77800
O1442       O  0.80705578  0.68674228  0.75762160    -1.13900
O1443       O  0.73486320  0.68649671  0.74772409    -0.73100
C1444       C  0.73366613  0.65270894  0.74895059     0.97600
C1445       C  0.87280548  0.65801359  0.72025623     0.94000
Al1446     Al  0.84471989  0.69289909  0.78315338     1.55600
O1447       O  0.77638726  0.67316651  0.69423165    -0.77800
C1448       C  0.78604640  0.72051551  0.82620404     0.98200
C1449       C  0.83758528  0.62135043  0.79492529     0.93000
O1450       O  0.82744857  0.61688770  0.76408966    -0.83100
O1451       O  0.61239228  0.50877932  0.62784055    -0.82500
C1452       C  0.48903038  0.58480637  0.62666473     0.96800
O1453       O  0.48946765  0.55268953  0.63685025    -0.71600
O1454       O  0.52129099  0.53031615  0.58449384    -0.75200
Al1455     Al  0.52939298  0.52111883  0.62951976     1.49000
C1456       C  0.54297491  0.52385660  0.56137466     0.92100
O1457       O  0.59081036  0.59390458  0.58354553    -0.81500
O1458       O  0.59366368  0.58177905  0.68489577    -0.75000
Al1459     Al  0.59965645  0.55138340  0.60673744     1.90100
O1460       O  0.58041892  0.62588900  0.62945396    -0.74100
O1461       O  0.52711614  0.56439842  0.69364920    -0.73900
O1462       O  0.51465737  0.60469798  0.63307743    -0.79600
O1463       O  0.53511635  0.50989012  0.67537169    -0.77800
O1464       O  0.56138303  0.55476391  0.63168893    -1.13900
O1465       O  0.56223233  0.48240890  0.61911053    -0.73100
C1466       C  0.59557115  0.48119214  0.62080130     0.97600
C1467       C  0.59076944  0.62335991  0.59843123     0.94000
Al1468     Al  0.55416818  0.59167897  0.65853652     1.55600
O1469       O  0.57595324  0.52737410  0.56707318    -0.77800
C1470       C  0.52649137  0.53078683  0.69892803     0.98200
C1471       C  0.62419209  0.58270142  0.67255829     0.93000
O1472       O  0.62974312  0.57444249  0.64126040    -0.83100
C1473       C  0.64328295  0.62757467  0.71475791    -0.21000
C1474       C  0.65204528  0.59788932  0.69447226    -0.07600
C1475       C  0.68638012  0.58414250  0.69578830     0.13300
C1476       C  0.71144833  0.60121362  0.71626928    -0.21100
C1477       C  0.70345437  0.63244609  0.73479375    -0.07600
C1478       C  0.66854868  0.64520078  0.73469154     0.13300
C1479       C  0.65774302  0.67725569  0.75525779    -0.24400
H1480       H  0.61665464  0.63789950  0.71402439     0.14500
H1481       H  0.73810062  0.59099551  0.71618617     0.14600
C1482       C  0.69663692  0.55145985  0.67591613    -0.24400
H1483       H  0.62895033  0.68207982  0.75369085     0.04800
H1484       H  0.67105427  0.70144529  0.74552323     0.08000
H1485       H  0.66467508  0.67311778  0.78262828     0.08000
H1486       H  0.69428436  0.55665502  0.64799148     0.08000
H1487       H  0.67921837  0.52899875  0.68315834     0.08000
H1488       H  0.72424266  0.54341263  0.68116508     0.04800
C1489       C  0.65849828  0.68421489  0.55787705    -0.21000
C1490       C  0.63790259  0.70387871  0.53477717    -0.07600
C1491       C  0.60112559  0.69687728  0.53309840     0.13300
C1492       C  0.58597957  0.67211148  0.55584339    -0.21100
C1493       C  0.60655829  0.65344441  0.57954745    -0.07600
C1494       C  0.64344195  0.65843022  0.57942386     0.13300
C1495       C  0.66723085  0.63542256  0.60089536    -0.24400
H1496       H  0.68656902  0.68907069  0.55920326     0.14500
H1497       H  0.55806509  0.66640580  0.55440065     0.14600
C1498       C  0.57779938  0.71383845  0.50635233    -0.24400
H1499       H  0.69521585  0.64351895  0.59860394     0.04800
H1500       H  0.66527056  0.60746622  0.59223348     0.08000
H1501       H  0.65936637  0.63710320  0.62819124     0.08000
H1502       H  0.58898298  0.70916990  0.48044248     0.08000
H1503       H  0.57519030  0.74271766  0.51083762     0.08000
H1504       H  0.55081156  0.70256161  0.50681038     0.04800
C1505       C  0.76455221  0.77423757  0.90634773    -0.21000
C1506       C  0.73064517  0.76135910  0.91447533    -0.07600
C1507       C  0.71672587  0.73326643  0.89490550     0.13300
C1508       C  0.73672507  0.71917798  0.86782691    -0.21100
C1509       C  0.77037047  0.73241079  0.85927464    -0.07600
C1510       C  0.78441241  0.76036685  0.87894776     0.13300
C1511       C  0.81958442  0.77655054  0.87047210    -0.24400
H1512       H  0.77559543  0.79554283  0.92154282     0.14500
H1513       H  0.72561866  0.69785401  0.85269098     0.14600
C1514       C  0.68130025  0.71731337  0.90289563    -0.24400
H1515       H  0.82619572  0.79870558  0.88805277     0.04800
H1516       H  0.81925369  0.78722920  0.84389435     0.08000
H1517       H  0.84053663  0.75612031  0.87282957     0.08000
H1518       H  0.66042637  0.73769038  0.89962984     0.08000
H1519       H  0.68096829  0.70715261  0.92965953     0.08000
H1520       H  0.67502044  0.69482272  0.88559669     0.04800
C1521       C  0.70832291  0.74536461  0.62878697    -0.21000
C1522       C  0.72657907  0.77561672  0.61730166    -0.07600
C1523       C  0.76175778  0.78063329  0.62760374     0.13300
C1524       C  0.77846052  0.75398290  0.64660827    -0.21100
C1525       C  0.76037530  0.72348819  0.65780702    -0.07600
C1526       C  0.72460566  0.71960955  0.64927759     0.13300
C1527       C  0.70293262  0.68973490  0.66345640    -0.24400
H1528       H  0.68145738  0.74117323  0.62030743     0.14500
H1529       H  0.80533929  0.75828472  0.65503309     0.14600
C1530       C  0.78278364  0.81332532  0.61895465    -0.24400
H1531       H  0.67542076  0.69072145  0.65399199     0.04800
H1532       H  0.70187881  0.69230550  0.69156671     0.08000
H1533       H  0.71483059  0.66380901  0.65648199     0.08000
H1534       H  0.76742075  0.83382365  0.60522700     0.08000
H1535       H  0.80576570  0.80572513  0.60304173     0.08000
H1536       H  0.79250729  0.82562023  0.64300529     0.04800
C1537       C  0.63875809  0.95081284  0.91200277    -0.21000
C1538       C  0.60151188  0.95048055  0.91215234    -0.07600
C1539       C  0.58403752  0.92299269  0.93040082     0.13300
C1540       C  0.60403553  0.89895817  0.94989082    -0.21100
C1541       C  0.64077706  0.90135686  0.95158806    -0.07600
C1542       C  0.65849448  0.92663711  0.93159889     0.13300
C1543       C  0.68552133  0.94735128  0.47931851    -0.24400
H1544       H  0.65269227  0.97111685  0.89770457     0.14500
H1545       H  0.59083480  0.87834751  0.96449150     0.14600
C1546       C  0.54451813  0.91923061  0.93085310    -0.24400
H1547       H  0.69175371  0.97610294  0.47747736     0.04800
H1548       H  0.70957968  0.93223562  0.47246470     0.08000
H1549       H  0.67810507  0.94176756  0.50632067     0.08000
H1550       H  0.53451677  0.91701151  0.90421527     0.08000
H1551       H  0.53216293  0.94230642  0.94375473     0.08000
H1552       H  0.53605732  0.89511532  0.94509655     0.04800
C1553       C  0.42887470  0.15636253  0.94422632    -0.21000
C1554       C  0.40134309  0.13452004  0.95480358    -0.07600
C1555       C  0.39974364  0.09903868  0.94299998     0.13300
C1556       C  0.42572941  0.08636453  0.92063516    -0.21100
C1557       C  0.45320611  0.10825866  0.90913542    -0.07600
C1558       C  0.45482747  0.14394590  0.92150176     0.13300
C1559       C  0.48349693  0.16958266  0.91129147    -0.24400
H1560       H  0.42948166  0.18362538  0.95309947     0.14500
H1561       H  0.42451729  0.05899683  0.91219738     0.14600
C1562       C  0.37073132  0.07420134  0.95410262    -0.24400
H1563       H  0.47944128  0.19632171  0.92260896     0.04800
H1564       H  0.48390317  0.17288151  0.88299671     0.08000
H1565       H  0.50936008  0.15981083  0.92057410     0.08000
H1566       H  0.34518657  0.08323869  0.94348104     0.08000
H1567       H  0.36907844  0.07342157  0.98248670     0.08000
H1568       H  0.37529409  0.04667364  0.94493506     0.04800
C1569       C  0.52619340  0.47944675  0.73914181    -0.21000
C1570       C  0.51377095  0.51392973  0.73127258    -0.07600
C1571       C  0.48642155  0.52834456  0.75138026     0.13300
C1572       C  0.47241800  0.50810315  0.77852257    -0.21100
C1573       C  0.48472038  0.47358365  0.78623273    -0.07600
C1574       C  0.51209109  0.45917353  0.76619043     0.13300
C1575       C  0.52733319  0.42302947  0.77377971    -0.24400
H1576       H  0.54708498  0.46803860  0.72374298     0.14500
H1577       H  0.45164380  0.51948334  0.79409016     0.14600
C1578       C  0.47112750  0.56447076  0.74386610    -0.24400
H1579       H  0.54926078  0.41633257  0.75608699     0.04800
H1580       H  0.50670076  0.40244509  0.77079699     0.08000
H1581       H  0.53772209  0.42229523  0.80038187     0.08000
H1582       H  0.46052238  0.56516413  0.71734978     0.08000
H1583       H  0.49177489  0.58506438  0.74671127     0.08000
H1584       H  0.44932148  0.57117554  0.76169148     0.04800
C1585       C  0.51102002  0.45592726  0.49812132    -0.21000
C1586       C  0.47137300  0.47405051  0.98831889    -0.07600
C1587       C  0.46198171  0.50728235  0.00201938     0.13300
C1588       C  0.49322157  0.52277121  0.52199465    -0.21100
C1589       C  0.52670513  0.50875287  0.53023864    -0.07600
C1590       C  0.53567857  0.47468569  0.51780830     0.13300
C1591       C  0.57047412  0.45678453  0.52477601    -0.24400
H1592       H  0.51870599  0.43047894  0.48742035     0.14500
H1593       H  0.48560461  0.54836355  0.53239388     0.14600
C1594       C  0.42647041  0.52352567  0.99546890    -0.24400
H1595       H  0.58316015  0.44970761  0.50004955     0.04800
H1596       H  0.56607811  0.43206690  0.53975832     0.08000
H1597       H  0.58923746  0.47357767  0.53889477     0.08000
H1598       H  0.40550746  0.50517943  0.00439158     0.08000
H1599       H  0.42346568  0.52850638  0.96777988     0.08000
H1600       H  0.42310561  0.54924120  0.00899415     0.04800
C1601       C  0.40829607  0.31515688  0.95792048    -0.21000
C1602       C  0.38734104  0.33544561  0.93591931    -0.07600
C1603       C  0.35035049  0.33176588  0.93740780     0.13300
C1604       C  0.33525065  0.30640466  0.95942160    -0.21100
C1605       C  0.35613571  0.28528733  0.98105587    -0.07600
C1606       C  0.39335916  0.29015597  0.98049132     0.13300
C1607       C  0.41778312  0.27000135  0.00407859    -0.24400
H1608       H  0.43648897  0.31949334  0.95793992     0.14500
H1609       H  0.31024135  0.30567614  0.46507969     0.14600
C1610       C  0.32664113  0.35547859  0.91659264    -0.24400
H1611       H  0.44519975  0.28005083  0.00246557     0.04800
H1612       H  0.41860977  0.24151523  0.99694351     0.08000
H1613       H  0.40890106  0.27292160  0.03105784     0.08000
H1614       H  0.33336368  0.35319510  0.88902063     0.08000
H1615       H  0.33004003  0.38338128  0.92495526     0.08000
H1616       H  0.29847356  0.34848190  0.91991847     0.04800
C1617       C  0.56240566  0.32823037  0.93763201    -0.21000
C1618       C  0.58707511  0.35012582  0.95351699    -0.07600
C1619       C  0.58630896  0.38710256  0.94696157     0.13300
C1620       C  0.56060344  0.40137280  0.92505816    -0.21100
C1621       C  0.53569789  0.37969196  0.90879538    -0.07600
C1622       C  0.53665833  0.34233315  0.91543363     0.13300
C1623       C  0.51119720  0.31667105  0.89920637    -0.24400
H1624       H  0.56382889  0.29982092  0.94206069     0.14500
H1625       H  0.55988134  0.42983250  0.92088527     0.14600
C1626       C  0.61283394  0.41174406  0.96289841    -0.24400
H1627       H  0.51758648  0.28864249  0.90568218     0.04800
H1628       H  0.51217439  0.31931603  0.87085842     0.08000
H1629       H  0.48411525  0.32176215  0.90865576     0.08000
H1630       H  0.63954613  0.40547383  0.95319912     0.08000
H1631       H  0.61239975  0.40870652  0.99116224     0.08000
H1632       H  0.60724737  0.44001361  0.95673286     0.04800
C1633       C  0.64747109  0.45772194  0.59033828    -0.21000
C1634       C  0.61574042  0.45039692  0.60785126    -0.07600
C1635       C  0.60280277  0.41535618  0.60843829     0.13300
C1636       C  0.62118403  0.38897429  0.59050875    -0.21100
C1637       C  0.65138564  0.39701488  0.57104359    -0.07600
C1638       C  0.66505400  0.43164201  0.57140454     0.13300
C1639       C  0.69803206  0.44120586  0.55197635    -0.24400
H1640       H  0.65761774  0.48459136  0.58966830     0.14500
H1641       H  0.61082231  0.36216588  0.59024746     0.14600
C1642       C  0.56971100  0.40560303  0.62754282    -0.24400
H1643       H  0.70597544  0.46915247  0.55661974     0.04800
H1644       H  0.67694606  0.43775820  0.01128512     0.08000
H1645       H  0.71999750  0.42367147  0.56020860     0.08000
H1646       H  0.54659074  0.41860985  0.61550536     0.08000
H1647       H  0.57190162  0.41401591  0.65472284     0.08000
H1648       H  0.56496417  0.37650765  0.62716481     0.04800
C1649       C  0.58353083  0.16621064  0.96585804    -0.21000
C1650       C  0.59952994  0.15606124  0.93495930    -0.07600
C1651       C  0.63416642  0.16760894  0.92793869     0.13300
C1652       C  0.65159498  0.18957715  0.95153810    -0.21100
C1653       C  0.63515359  0.20075019  0.98188537    -0.07600
C1654       C  0.60066962  0.18872009  0.98918952     0.13300
C1655       C  0.58695755  0.20167680  0.52504801    -0.24400
H1656       H  0.55773131  0.15576241  0.97208664     0.14500
H1657       H  0.67794996  0.19875693  0.94581493     0.14600
C1658       C  0.65340430  0.15564071  0.89627453    -0.24400
H1659       H  0.56125569  0.18802853  0.52813637     0.04800
H1660       H  0.58184386  0.23066748  0.52570250     0.08000
H1661       H  0.60393068  0.19408353  0.54705228     0.08000
H1662       H  0.63834633  0.16348600  0.87308659     0.08000
H1663       H  0.65682223  0.12644741  0.89696596     0.08000
H1664       H  0.68001616  0.16753874  0.89450910     0.04800
C1665       C  0.38470288  0.59907291  0.93409888    -0.21000
C1666       C  0.35225367  0.59200036  0.95015130    -0.07600
C1667       C  0.33594625  0.55904232  0.94517422     0.13300
C1668       C  0.35305491  0.53338653  0.92518339    -0.21100
C1669       C  0.38677495  0.53938188  0.91086752    -0.07600
C1670       C  0.40244097  0.57309301  0.91491416     0.13300
C1671       C  0.43785262  0.58179628  0.89969756    -0.24400
H1672       H  0.39692970  0.62479157  0.93773991     0.14500
H1673       H  0.34060592  0.50769283  0.92238772     0.14600
C1674       C  0.30728167  0.54085738  0.47248871    -0.24400
H1675       H  0.44475139  0.61018108  0.90341836     0.04800
H1676       H  0.43761649  0.57641436  0.87172191     0.08000
H1677       H  0.45868235  0.56571130  0.91224468     0.08000
H1678       H  0.28460960  0.55741244  0.46419764     0.08000
H1679       H  0.31186090  0.54469896  0.50032359     0.08000
H1680       H  0.30031122  0.51254046  0.46844989     0.04800
C1681       C  0.47006266  0.62336242  0.57849437    -0.21000
C1682       C  0.46062562  0.59908597  0.60460042    -0.07600
C1683       C  0.42513875  0.58932587  0.60837773     0.13300
C1684       C  0.39986793  0.60552100  0.58735620    -0.21100
C1685       C  0.40899705  0.63095945  0.56219539    -0.07600
C1686       C  0.44475316  0.63911479  0.55698572     0.13300
C1687       C  0.45628536  0.66491947  0.52964130    -0.24400
H1688       H  0.49755607  0.63003337  0.57483862     0.14500
H1689       H  0.37249257  0.59832733  0.59083961     0.14600
C1690       C  0.41352712  0.56289487  0.63516852    -0.24400
H1691       H  0.48523768  0.66891094  0.52985677     0.04800
H1692       H  0.44350632  0.69109406  0.53381975     0.08000
H1693       H  0.44892750  0.65461532  0.50399101     0.08000
H1694       H  0.42193498  0.57194492  0.66095699     0.08000
H1695       H  0.42519814  0.53647149  0.62971094     0.08000
H1696       H  0.38448492  0.55972100  0.63554790     0.04800
C1697       C  0.83331713  0.56521895  0.82809085    -0.21000
C1698       C  0.85415150  0.59233894  0.81462732    -0.07600
C1699       C  0.89048270  0.59319670  0.82243594     0.13300
C1700       C  0.90534225  0.56617927  0.84252587    -0.21100
C1701       C  0.88505820  0.53791436  0.85510004    -0.07600
C1702       C  0.84804768  0.53803421  0.84838129     0.13300
C1703       C  0.82346696  0.50979808  0.86181011    -0.24400
H1704       H  0.80533833  0.56539441  0.82269447     0.14500
H1705       H  0.93341710  0.56653815  0.84731513     0.14600
C1706       C  0.91419554  0.62187392  0.80860676    -0.24400
H1707       H  0.79554622  0.51579852  0.85566208     0.04800
H1708       H  0.82565564  0.50805252  0.89014087     0.08000
H1709       H  0.82963583  0.48379877  0.84993494     0.08000
H1710       H  0.90537758  0.64824661  0.81781065     0.08000
H1711       H  0.91392722  0.62110333  0.78020018     0.08000
H1712       H  0.94185986  0.61829527  0.81708658     0.04800
C1713       C  0.85123946  0.35930415  0.96471054    -0.21000
C1714       C  0.84495092  0.39206297  0.94833082    -0.07600
C1715       C  0.81153306  0.40783031  0.95078038     0.13300
C1716       C  0.78466786  0.38964521  0.96810384    -0.21100
C1717       C  0.78999102  0.35541101  0.98220984    -0.07600
C1718       C  0.82409574  0.34050532  0.98120945     0.13300
C1719       C  0.83213013  0.30495840  0.99724135    -0.24400
H1720       H  0.87720787  0.34747334  0.96305017     0.14500
H1721       H  0.76059716  0.39649999  0.46040978     0.14600
C1722       C  0.80418295  0.44375147  0.93520794    -0.24400
H1723       H  0.86067585  0.29871002  0.99614596     0.04800
H1724       H  0.81808161  0.28357651  0.98337336     0.08000
H1725       H  0.82400487  0.30502432  0.02460183     0.08000
H1726       H  0.80734489  0.44256262  0.90695783     0.08000
H1727       H  0.82273652  0.46362447  0.94584603     0.08000
H1728       H  0.77491505  0.44518579  0.42676113     0.04800
C1729       C  0.96222008  0.63661272  0.68052744    -0.21000
C1730       C  0.95352784  0.60823206  0.65848649    -0.07600
C1731       C  0.91820641  0.59697291  0.65678212     0.13300
C1732       C  0.89283570  0.61426303  0.67698844    -0.21100
C1733       C  0.90168579  0.64213320  0.69955118    -0.07600
C1734       C  0.93693126  0.65344016  0.70122017     0.13300
C1735       C  0.94799225  0.68356222  0.72410730    -0.24400
H1736       H  0.98934812  0.64515376  0.68237387     0.14500
H1737       H  0.86577874  0.60531489  0.67564084     0.14600
C1738       C  0.90685894  0.56721910  0.63352901    -0.24400
H1739       H  0.97635178  0.68990458  0.72103787     0.04800
H1740       H  0.94351483  0.67636883  0.75136186     0.08000
H1741       H  0.93267488  0.70777296  0.71766890     0.08000
H1742       H  0.91914651  0.54188485  0.64188890     0.08000
H1743       H  0.91468920  0.57325821  0.60670253     0.08000
H1744       H  0.87789230  0.56340041  0.63402456     0.04800
C1745       C  0.99027390  0.48338396  0.54101460    -0.21000
C1746       C  0.00939322  0.51551468  0.53843121    -0.07600
C1747       C  0.01924076  0.52780608  0.50568110     0.13300
C1748       C  0.00943189  0.50807862  0.47664862    -0.21100
C1749       C  0.98553176  0.47872341  0.98238437    -0.07600
C1750       C  0.00969293  0.46335506  0.00559043     0.13300
C1751       C  0.02319134  0.42603642  0.00089949    -0.24400
H1752       H  0.98266296  0.47361341  0.56611773     0.14500
H1753       H  0.95651612  0.52650095  0.97025875     0.14600
C1754       C  0.04089066  0.56096821  0.50117268    -0.24400
H1755       H  0.04283630  0.41871809  0.02078336     0.04800
H1756       H  0.03606270  0.42351698  0.97544730     0.08000
H1757       H  0.00107924  0.40692022  0.00284444     0.08000
H1758       H  0.06603317  0.55830144  0.51544906    -0.06400
H1759       H  0.02608937  0.58429454  0.51088485     0.08000
H1760       H  0.04729047  0.56600688  0.47379659     0.04800
C1761       C  0.01772395  0.47337585  0.74131813    -0.21000
C1762       C  0.01679515  0.51058182  0.73915731    -0.07600
C1763       C  0.99002194  0.52930228  0.75673641     0.13300
C1764       C  0.96583047  0.51063002  0.77707380    -0.21100
C1765       C  0.96728501  0.47357593  0.77987871    -0.07600
C1766       C  0.99296021  0.45468495  0.76105630     0.13300
C1767       C  0.99408416  0.41469457  0.76089060    -0.24400
H1768       H  0.03647317  0.45867919  0.72586238     0.14500
H1769       H  0.94694011  0.52519308  0.79242692     0.14600
C1770       C  0.98709162  0.56916401  0.75411683    -0.24400
H1771       H  0.99073258  0.40501695  0.73422929     0.04800
H1772       H  0.97296438  0.40273781  0.77682407     0.08000
H1773       H  0.01978154  0.40529160  0.77060166     0.08000
H1774       H  0.98125086  0.57728203  0.72737236     0.08000
H1775       H  0.01216181  0.58155142  0.76237314     0.08000
H1776       H  0.96565446  0.57958020  0.77055599     0.04800
C1777       C  0.14455076  0.62485987  0.55703645    -0.21000
C1778       C  0.15130705  0.59672135  0.58015292    -0.07600
C1779       C  0.18612187  0.58435173  0.58388486     0.13300
C1780       C  0.21308208  0.60050729  0.56476267    -0.21100
C1781       C  0.20664560  0.62995403  0.54313615    -0.07600
C1782       C  0.17180793  0.64202269  0.53902056     0.13300
C1783       C  0.16321742  0.67259255  0.51547230    -0.24400
H1784       H  0.11783101  0.63445576  0.55400813     0.14500
H1785       H  0.23985678  0.59127922  0.56832825     0.14600
C1786       C  0.19509819  0.55418210  0.60783293    -0.24400
H1787       H  0.13441609  0.67733654  0.51389378     0.04800
H1788       H  0.17303350  0.66680981  0.48924429     0.08000
H1789       H  0.17561894  0.69730763  0.52501607     0.08000
H1790       H  0.17928302  0.53040859  0.60119582     0.08000
H1791       H  0.18963395  0.56199306  0.63472913     0.08000
H1792       H  0.22335641  0.54681368  0.60621560     0.04800
C1793       C  0.27912863  0.38441390  0.81337494    -0.21000
C1794       C  0.28677125  0.35725594  0.78969891    -0.07600
C1795       C  0.32203464  0.34967802  0.78172996     0.13300
C1796       C  0.34881580  0.36836479  0.79880328    -0.21100
C1797       C  0.34111777  0.39410375  0.82407768    -0.07600
C1798       C  0.30565506  0.40275547  0.83076744     0.13300
C1799       C  0.29534086  0.43139184  0.85584089    -0.24400
H1800       H  0.25194285  0.39047139  0.81942830     0.14500
H1801       H  0.37598092  0.36173659  0.79327730     0.14600
C1802       C  0.33135633  0.32242424  0.75506152    -0.24400
H1803       H  0.26653154  0.43637256  0.85564335     0.04800
H1804       H  0.30872461  0.45663826  0.84902294     0.08000
H1805       H  0.30250520  0.42349143  0.88231800     0.08000
H1806       H  0.31884940  0.32962995  0.73025936     0.08000
H1807       H  0.32197705  0.29583225  0.76325794     0.08000
H1808       H  0.36023062  0.32077195  0.75096986     0.04800
C1809       C  0.26214708  0.26786421  0.65745308    -0.21000
C1810       C  0.22637308  0.25872278  0.66232516    -0.07600
C1811       C  0.21079684  0.23462852  0.63927991     0.13300
C1812       C  0.23092179  0.22117347  0.61193894    -0.21100
C1813       C  0.26653139  0.23072240  0.60679809    -0.07600
C1814       C  0.28238894  0.25406203  0.63034013     0.13300
C1815       C  0.32027720  0.26516392  0.62677359    -0.24400
H1816       H  0.27463601  0.28593702  0.67526131     0.14500
H1817       H  0.21850689  0.20297893  0.59419075     0.14600
C1818       C  0.17344228  0.22209764  0.64377236    -0.24400
H1819       H  0.32821576  0.28395102  0.64725131     0.04800
H1820       H  0.32437903  0.27853035  0.60167421     0.08000
H1821       H  0.33761251  0.24147488  0.62864127     0.08000
H1822       H  0.15511273  0.24498116  0.64173390     0.08000
H1823       H  0.17037651  0.20913881  0.66921980     0.08000
H1824       H  0.16589186  0.20249802  0.62387119     0.04800
C1825       C  0.20934633  0.23300085  0.87454373    -0.21000
C1826       C  0.22723508  0.26355039  0.86299379    -0.07600
C1827       C  0.26311278  0.26744982  0.87134969     0.13300
C1828       C  0.27966411  0.24166297  0.89167155    -0.21100
C1829       C  0.26143170  0.21196471  0.90447648    -0.07600
C1830       C  0.22590226  0.20730590  0.89516956     0.13300
C1831       C  0.20485401  0.17636545  0.90818725    -0.24400
H1832       H  0.18235561  0.22879849  0.86649541     0.14500
H1833       H  0.30679991  0.24568533  0.89936017     0.14600
C1834       C  0.28472786  0.29771961  0.85773347    -0.24400
H1835       H  0.17784409  0.17602091  0.89733464     0.04800
H1836       H  0.20241405  0.17854671  0.93628197     0.08000
H1837       H  0.21808334  0.15104990  0.90133328     0.08000
H1838       H  0.27217274  0.32342910  0.86435488     0.08000
H1839       H  0.28729860  0.29512472  0.82969125     0.08000
H1840       H  0.31180667  0.29743470  0.86834507     0.04800
C1841       C  0.07020445  0.33028022  0.84080623    -0.21000
C1842       C  0.08537670  0.34989325  0.81403968    -0.07600
C1843       C  0.07744529  0.38654858  0.81127129     0.13300
C1844       C  0.05415928  0.40239042  0.83476105    -0.21100
C1845       C  0.03826841  0.38268384  0.86113110    -0.07600
C1846       C  0.04645256  0.34593425  0.86407701     0.13300
C1847       C  0.03137143  0.32314283  0.89234108    -0.24400
H1848       H  0.07752144  0.30261244  0.84386806     0.14500
H1849       H  0.04771505  0.43030283  0.83194808     0.14600
C1850       C  0.09401472  0.40945565  0.78404746    -0.24400
H1851       H  0.04302440  0.29606994  0.89241043     0.04800
H1852       H  0.00260761  0.31995851  0.88896621     0.08000
H1853       H  0.03686242  0.33544282  0.91761023     0.08000
H1854       H  0.08858863  0.39808922  0.75839951     0.08000
H1855       H  0.12271703  0.41112036  0.78852755     0.08000
H1856       H  0.08345769  0.43698514  0.78437463     0.04800
C1857       C  0.11013825  0.39092572  0.68672644    -0.21000
C1858       C  0.14121021  0.39929415  0.70462457    -0.07600
C1859       C  0.15456843  0.43394403  0.70327080     0.13300
C1860       C  0.13653227  0.45949715  0.68390552    -0.21100
C1861       C  0.10460722  0.45163998  0.66690126    -0.07600
C1862       C  0.09123988  0.41680736  0.66847554     0.13300
C1863       C  0.05738756  0.40666102  0.65103279    -0.24400
H1864       H  0.09987747  0.36410513  0.68809224     0.14500
H1865       H  0.14688038  0.48628505  0.68331429     0.14600
C1866       C  0.18785797  0.44389337  0.72183433    -0.24400
H1867       H  0.05208753  0.37774849  0.65333925     0.04800
H1868       H  0.05885203  0.41343649  0.62334079     0.08000
H1869       H  0.03495003  0.42088302  0.66298883     0.08000
H1870       H  0.20988314  0.42680567  0.71298761     0.08000
H1871       H  0.18423625  0.44034001  0.74987586     0.08000
H1872       H  0.19518841  0.47203219  0.71710354     0.04800
C1873       C  0.70797563  0.09999715  0.80547437    -0.21000
C1874       C  0.70235336  0.13308581  0.78916806    -0.07600
C1875       C  0.66802678  0.14749132  0.78879944     0.13300
C1876       C  0.64077710  0.12906295  0.80551642    -0.21100
C1877       C  0.64711258  0.09728404  0.82367399    -0.07600
C1878       C  0.68096363  0.08224551  0.82309069     0.13300
C1879       C  0.68858916  0.04741055  0.84071368    -0.24400
H1880       H  0.73417682  0.08862315  0.80595552     0.14500
H1881       H  0.61457871  0.14049802  0.80585004     0.14600
C1882       C  0.65982894  0.18205041  0.77092928    -0.24400
H1883       H  0.71613561  0.03862532  0.83637525     0.04800
H1884       H  0.67077337  0.02655151  0.83064737     0.08000
H1885       H  0.68462509  0.05004238  0.86877722     0.08000
H1886       H  0.66805961  0.18050165  0.74367300     0.08000
H1887       H  0.67368610  0.20427225  0.78370840     0.08000
H1888       H  0.63123634  0.18816053  0.77156276     0.04800
C1889       C  0.71775692  0.22833142  0.62399380    -0.21000
C1890       C  0.73072045  0.25791737  0.60627362    -0.07600
C1891       C  0.76162971  0.27494986  0.61836750     0.13300
C1892       C  0.77871376  0.26185722  0.64775014    -0.21100
C1893       C  0.76577358  0.23227257  0.66546017    -0.07600
C1894       C  0.73494610  0.21513777  0.65330565     0.13300
C1895       C  0.72069940  0.18210769  0.67034666    -0.24400
H1896       H  0.69467166  0.21483875  0.61424209     0.14500
H1897       H  0.80185571  0.27530375  0.65743611     0.14600
C1898       C  0.77625653  0.30764150  0.60101503    -0.24400
H1899       H  0.69843266  0.17058301  0.65571607     0.04800
H1900       H  0.71078548  0.18836196  0.69636487     0.08000
H1901       H  0.74171580  0.16165634  0.67211931     0.08000
H1902       H  0.75544063  0.32826424  0.59891780     0.08000
H1903       H  0.78626202  0.30098921  0.57510718     0.08000
H1904       H  0.79856124  0.31913691  0.61561471     0.04800
C1905       C  0.76663097  0.26679753  0.90471898    -0.21000
C1906       C  0.72989636  0.27005254  0.90334188    -0.07600
C1907       C  0.71038495  0.24610574  0.88317054     0.13300
C1908       C  0.72791558  0.21897573  0.86544396    -0.21100
C1909       C  0.76468539  0.21573378  0.86672413    -0.07600
C1910       C  0.78422847  0.24005179  0.88653726     0.13300
C1911       C  0.82382148  0.23793059  0.88799900    -0.24400
H1912       H  0.78143044  0.28400911  0.92164990     0.14500
H1913       H  0.71311876  0.20199111  0.84829205     0.14600
C1914       C  0.67102319  0.24983393  0.87997041    -0.24400
H1915       H  0.83502860  0.25844663  0.90522614     0.04800
H1916       H  0.83521545  0.24201752  0.86208078     0.08000
H1917       H  0.83187097  0.21140055  0.89774497     0.08000
H1918       H  0.66461180  0.27636828  0.86915593     0.08000
H1919       H  0.65824619  0.24727534  0.90541633     0.08000
H1920       H  0.65972716  0.22935417  0.86277324     0.04800
C1921       C  0.88702901  0.27629817  0.81091766    -0.21000
C1922       C  0.85543175  0.28494962  0.79348042    -0.07600
C1923       C  0.83930779  0.31804659  0.80035082     0.13300
C1924       C  0.85604433  0.34194136  0.82250034    -0.21100
C1925       C  0.88824127  0.33385435  0.83854413    -0.07600
C1926       C  0.90349836  0.30029598  0.83339916     0.13300
C1927       C  0.93765677  0.29037875  0.85042482    -0.24400
H1928       H  0.89912100  0.25056233  0.80694035     0.14500
H1929       H  0.84418580  0.36775341  0.82685542     0.14600
C1930       C  0.80497940  0.32901887  0.78410957    -0.24400
H1931       H  0.94619095  0.26310967  0.84344358     0.04800
H1932       H  0.93454003  0.29144502  0.87871203     0.08000
H1933       H  0.95855971  0.30921966  0.84239231     0.08000
H1934       H  0.78359946  0.31105542  0.79277712     0.08000
H1935       H  0.80734475  0.32817357  0.75574658     0.08000
H1936       H  0.79728615  0.35646115  0.79136361     0.04800
C1937       C  0.82193236  0.84385284  0.54290808    -0.21000
C1938       C  0.79046726  0.86258815  0.53814035    -0.07600
C1939       C  0.78839992  0.89837122  0.55027379     0.13300
C1940       C  0.81631318  0.91261072  0.56935103    -0.21100
C1941       C  0.84668851  0.89296695  0.57564100    -0.07600
C1942       C  0.85009330  0.85855595  0.56122734     0.13300
C1943       C  0.88253204  0.83616574  0.56650719    -0.24400
H1944       H  0.82398673  0.81685781  0.53353059     0.14500
H1945       H  0.81442268  0.93928791  0.57960478     0.14600
C1946       C  0.75701132  0.92208999  0.54419539    -0.24400
H1947       H  0.88013579  0.80971910  0.55419888     0.04800
H1948       H  0.88664239  0.83164661  0.59426567     0.08000
H1949       H  0.90578961  0.84945952  0.55509018     0.08000
H1950       H  0.73361603  0.91154148  0.55774892     0.08000
H1951       H  0.74998371  0.92774682  0.02137241     0.08000
H1952       H  0.76135432  0.94943901  0.55390663     0.04800
C1953       C  0.86080458  0.84993953  0.71326223    -0.21000
C1954       C  0.88820886  0.84032165  0.69049845    -0.07600
C1955       C  0.89766672  0.80430008  0.68784130     0.13300
C1956       C  0.88014467  0.77918625  0.70835466    -0.21100
C1957       C  0.85342731  0.78888457  0.73180768    -0.07600
C1958       C  0.84325355  0.82478263  0.73376634     0.13300
C1959       C  0.81473969  0.83691108  0.75790251    -0.24400
H1960       H  0.85296259  0.87756502  0.71510194     0.14500
H1961       H  0.88745930  0.75149420  0.70595210     0.14600
C1962       C  0.92694364  0.79226371  0.66453781    -0.24400
H1963       H  0.81121098  0.86619240  0.75710698     0.04800
H1964       H  0.82157321  0.82924624  0.78459994     0.08000
H1965       H  0.78930689  0.82460812  0.75065072     0.08000
H1966       H  0.95164842  0.80633743  0.67119632     0.08000
H1967       H  0.92000832  0.79788517  0.63745075     0.08000
H1968       H  0.93188274  0.76327288  0.66689427     0.04800
C1969       C  0.85632399  0.03260309  0.68241541    -0.21000
C1970       C  0.88643733  0.04106225  0.66285028    -0.07600
C1971       C  0.89694784  0.07677282  0.66011231     0.13300
C1972       C  0.87772448  0.10288058  0.67782907    -0.21100
C1973       C  0.84894079  0.09396086  0.69907595    -0.07600
C1974       C  0.83782328  0.05839039  0.70092640     0.13300
C1975       C  0.80650957  0.04738375  0.72219094    -0.24400
H1976       H  0.84802404  0.00518030  0.68464972     0.14500
H1977       H  0.88629616  0.13028420  0.67632911     0.14600
C1978       C  0.92802598  0.08741758  0.63846992    -0.24400
H1979       H  0.80022568  0.01880726  0.71882488     0.04800
H1980       H  0.78304612  0.06307569  0.71445319     0.08000
H1981       H  0.81196097  0.05165715  0.74980732     0.08000
H1982       H  0.92409228  0.07824987  0.61170744     0.08000
H1983       H  0.95245536  0.07544106  0.64894830     0.08000
H1984       H  0.93157227  0.11669186  0.63796489     0.04800
C1985       C  0.12958199  0.64153310  0.71581035    -0.21000
C1986       C  0.10286214  0.65171159  0.69255498    -0.07600
C1987       C  0.09316784  0.68771533  0.69043337     0.13300
C1988       C  0.10987903  0.71234270  0.71196361    -0.21100
C1989       C  0.13624499  0.70206108  0.73558021    -0.07600
C1990       C  0.14645153  0.66614947  0.73716566     0.13300
C1991       C  0.17422867  0.65338730  0.76185804    -0.24400
H1992       H  0.13745059  0.61388380  0.71731307     0.14500
H1993       H  0.10238404  0.74006772  0.71009544     0.14600
C1994       C  0.06462634  0.70014616  0.66645914    -0.24400
H1995       H  0.17754280  0.62409298  0.76087400     0.04800
H1996       H  0.16673240  0.66066570  0.78845671     0.08000
H1997       H  0.19996323  0.66554499  0.75534685     0.08000
H1998       H  0.03978685  0.68586172  0.67220703     0.08000
H1999       H  0.07248270  0.69501883  0.63951301     0.08000
H2000       H  0.05952555  0.72907208  0.66906642     0.04800
C2001       C  0.26021485  0.77267631  0.86564548    -0.21000
C2002       C  0.22632146  0.75892822  0.85899545    -0.07600
C2003       C  0.21348239  0.73135989  0.88007972     0.13300
C2004       C  0.23461587  0.71853641  0.90705876    -0.21100
C2005       C  0.26856955  0.73220009  0.91358313    -0.07600
C2006       C  0.28141595  0.75971943  0.89248544     0.13300
C2007       C  0.31689415  0.77625913  0.89869210    -0.24400
H2008       H  0.27044155  0.79363232  0.84934334     0.14500
H2009       H  0.22441115  0.69759653  0.92340083     0.14600
C2010       C  0.17818409  0.71453219  0.87363110    -0.24400
H2011       H  0.32241838  0.79808476  0.88024704     0.04800
H2012       H  0.33782284  0.75590475  0.89571012     0.08000
H2013       H  0.31793561  0.78746105  0.92498343     0.08000
H2014       H  0.17747594  0.70320111  0.84738008     0.08000
H2015       H  0.15708304  0.73474528  0.87632855     0.08000
H2016       H  0.17265168  0.69274279  0.89211829     0.04800
C2017       C  0.22097343  0.72694879  0.65385200    -0.21000
C2018       C  0.22853036  0.76351054  0.65768587    -0.07600
C2019       C  0.25651222  0.77830614  0.63893133     0.13300
C2020       C  0.27726962  0.75588943  0.61864638    -0.21100
C2021       C  0.26977261  0.71922380  0.61485402    -0.07600
C2022       C  0.24136243  0.70465163  0.63318450     0.13300
C2023       C  0.23168075  0.66603691  0.63061317    -0.24400
H2024       H  0.19936621  0.71532303  0.66817171     0.14500
H2025       H  0.29876410  0.76759588  0.60423118     0.14600
C2026       C  0.26461837  0.81744605  0.63988358    -0.24400
H2027       H  0.20931227  0.65902276  0.64767871     0.04800
H2028       H  0.25450403  0.64922215  0.63793947     0.08000
H2029       H  0.22364383  0.66014261  0.60404518     0.08000
H2030       H  0.27166446  0.82550024  0.66621126     0.08000
H2031       H  0.24124280  0.83278162  0.63127856     0.08000
H2032       H  0.28700577  0.82446980  0.62284337     0.04800
C2033       C  0.09862306  0.87623019  0.68118012    -0.21000
C2034       C  0.08847471  0.84962208  0.70482267    -0.07600
C2035       C  0.05268413  0.84067998  0.70767855     0.13300
C2036       C  0.02812242  0.85843944  0.68682623    -0.21100
C2037       C  0.03832096  0.88516153  0.66329388    -0.07600
C2038       C  0.07412568  0.89408306  0.66048525     0.13300
C2039       C  0.08686961  0.92141358  0.63506733    -0.24400
H2040       H  0.12615667  0.88333148  0.67890635     0.14500
H2041       H  0.00053082  0.85163625  0.68926748     0.14600
C2042       C  0.04041613  0.81186230  0.73169963    -0.24400
H2043       H  0.11601510  0.92351569  0.63500334     0.04800
H2044       H  0.07610162  0.94793034  0.64167323     0.08000
H2045       H  0.07834934  0.91397629  0.60882065     0.08000
H2046       H  0.04628842  0.81935659  0.75858626     0.08000
H2047       H  0.05396471  0.78653502  0.72547828     0.08000
H2048       H  0.01161219  0.80740105  0.72964491     0.04800
C2049       C  0.08551827  0.17805223  0.81713042    -0.21000
C2050       C  0.10738259  0.15108140  0.82927167    -0.07600
C2051       C  0.14293081  0.14979875  0.81844823     0.13300
C2052       C  0.15582813  0.17586733  0.79595688    -0.21100
C2053       C  0.13412122  0.20317626  0.78347206    -0.07600
C2054       C  0.09814132  0.20410307  0.79435610     0.13300
C2055       C  0.07232613  0.23207654  0.78247436    -0.24400
H2056       H  0.05812409  0.17818240  0.82493359     0.14500
H2057       H  0.18328013  0.17507137  0.78847788     0.14600
C2058       C  0.16763678  0.12117729  0.83098020    -0.24400
H2059       H  0.04533809  0.22707588  0.79230309     0.04800
H2060       H  0.07086146  0.23225612  0.75404289     0.08000
H2061       H  0.08029986  0.25856703  0.79209111     0.08000
H2062       H  0.15892881  0.09485026  0.82160183     0.08000
H2063       H  0.16822890  0.12099265  0.85942755     0.08000
H2064       H  0.19493281  0.12543622  0.82166507     0.04800
C2065       C  0.14090158  0.12340928  0.96796781    -0.21000
C2066       C  0.14935530  0.09453650  0.94639472    -0.07600
C2067       C  0.18415550  0.08164597  0.94607937     0.13300
C2068       C  0.20963774  0.09856968  0.96631115    -0.21100
C2069       C  0.20174101  0.12900856  0.98597438    -0.07600
C2070       C  0.16667935  0.14107127  0.98734001     0.13300
C2071       C  0.15854413  0.17075288  0.51296091    -0.24400
H2072       H  0.11412683  0.13334168  0.96852150     0.14500
H2073       H  0.23653788  0.08911103  0.96501157     0.14600
C2074       C  0.19466998  0.05019705  0.92455072    -0.24400
H2075       H  0.12961071  0.17464869  0.51438383     0.04800
H2076       H  0.17041402  0.19611049  0.50420609     0.08000
H2077       H  0.16826519  0.16433053  0.53910247     0.08000
H2078       H  0.19169244  0.05668316  0.89693305     0.08000
H2079       H  0.17792915  0.02700619  0.93111854     0.08000
H2080       H  0.22255474  0.04254896  0.92887551     0.04800
C2081       C  0.98209441  0.01480233  0.53565693    -0.21000
C2082       C  0.98546326  0.97739997  0.53819286    -0.07600
C2083       C  0.00059805  0.95908617  0.51029120     0.13300
C2084       C  0.01202421  0.97842618  0.48134320    -0.21100
C2085       C  0.00962598  0.01586525  0.98032140    -0.07600
C2086       C  0.98998721  0.03336156  0.00592604     0.13300
C2087       C  0.97988032  0.07193681  0.00263783    -0.24400
H2088       H  0.97034087  0.02946424  0.55661434     0.14500
H2089       H  0.02369539  0.96386590  0.46027461     0.14600
C2090       C  0.00526892  0.91934704  0.51075660    -0.24400
H2091       H  0.96373489  0.08100887  0.02469787     0.04800
H2092       H  0.96422660  0.07608923  0.97892805     0.08000
H2093       H  0.00391144  0.08862883  0.00175938     0.08000
H2094       H  0.97923976  0.90622589  0.51313781     0.08000
H2095       H  0.02233300  0.91147873  0.53260042     0.08000
H2096       H  0.01782287  0.90952830  0.48686202     0.04800
C2097       C  0.02225740  0.97574329  0.77792633    -0.21000
C2098       C  0.02553670  0.01281876  0.77834329    -0.07600
C2099       C  0.00182670  0.03365170  0.75893250     0.13300
C2100       C  0.97490286  0.01708701  0.74030857    -0.21100
C2101       C  0.97141455  0.98000999  0.74008634    -0.07600
C2102       C  0.99553697  0.95913264  0.75906013     0.13300
C2103       C  0.99311244  0.91915823  0.75908018    -0.24400
H2104       H  0.03938384  0.95984123  0.79406155     0.14500
H2105       H  0.95803233  0.03300460  0.72389055     0.14600
C2106       C  0.00538669  0.07351245  0.75769363    -0.24400
H2107       H  0.01350439  0.90684071  0.77571600     0.04800
H2108       H  0.99679375  0.90877925  0.73275008     0.08000
H2109       H  0.96685659  0.91091615  0.76869148     0.08000
H2110       H  0.03173562  0.08059812  0.74746752     0.08000
H2111       H  0.00249162  0.08498457  0.78369495     0.08000
H2112       H  0.98513381  0.08584848  0.74092293     0.04800
C2113       C  0.94234892  0.08882281  0.82835234    -0.21000
C2114       C  0.95719065  0.10825628  0.85538552    -0.07600
C2115       C  0.94765830  0.14444774  0.85950847     0.13300
C2116       C  0.92228083  0.15951306  0.83765123    -0.21100
C2117       C  0.90759956  0.13996341  0.81078218    -0.07600
C2118       C  0.91815505  0.10440067  0.80567221     0.13300
C2119       C  0.90334638  0.08256220  0.77679091    -0.24400
H2120       H  0.95030600  0.06147601  0.82443945     0.14500
H2121       H  0.91345920  0.18657535  0.84177730     0.14600
C2122       C  0.96328019  0.16713849  0.88737733    -0.24400
H2123       H  0.91514111  0.05557539  0.77597428     0.04800
H2124       H  0.90883269  0.09584201  0.75190391     0.08000
H2125       H  0.87456898  0.07945472  0.78020259     0.08000
H2126       H  0.99178993  0.17115245  0.88266428     0.08000
H2127       H  0.95934180  0.15419167  0.91270053     0.08000
H2128       H  0.95085873  0.19385055  0.88827942     0.04800
C2129       C  0.10583032  0.89056309  0.82821169    -0.21000
C2130       C  0.13960492  0.89728133  0.81497542    -0.07600
C2131       C  0.15631435  0.92954292  0.82212043     0.13300
C2132       C  0.13869537  0.95469054  0.84225234    -0.21100
C2133       C  0.10416559  0.94881695  0.85460402    -0.07600
C2134       C  0.08761824  0.91605741  0.84753101     0.13300
C2135       C  0.05116618  0.90748152  0.86036893    -0.24400
H2136       H  0.09334136  0.86531762  0.82276020     0.14500
H2137       H  0.15165522  0.97978630  0.84709064     0.14600
C2138       C  0.19273126  0.93722296  0.80881819    -0.24400
H2139       H  0.04364729  0.87967827  0.85441464     0.04800
H2140       H  0.03144102  0.92503219  0.84797892     0.08000
H2141       H  0.05005352  0.91085615  0.88862110     0.08000
H2142       H  0.19262598  0.93693027  0.78035638     0.08000
H2143       H  0.21137916  0.91672914  0.81835842     0.08000
H2144       H  0.20229358  0.96363430  0.81728668     0.04800
C2145       C  0.36772928  0.84112060  0.55541800    -0.21000
C2146       C  0.39478508  0.83143799  0.57842057    -0.07600
C2147       C  0.40498795  0.79555662  0.58062623     0.13300
C2148       C  0.38851717  0.77058891  0.55917366    -0.21100
C2149       C  0.36166694  0.78046166  0.53589707    -0.07600
C2150       C  0.35096707  0.81624670  0.53437587     0.13300
C2151       C  0.30869675  0.82737173  0.03294149    -0.24400
H2152       H  0.35935930  0.86862362  0.55396413     0.14500
H2153       H  0.39641845  0.74296145  0.56095357     0.14600
C2154       C  0.43365113  0.78365751  0.60470673    -0.24400
H2155       H  0.30020220  0.85397627  0.04201291     0.04800
H2156       H  0.28877916  0.80794188  0.04193857     0.08000
H2157       H  0.30928702  0.82813762  0.00447658     0.08000
H2158       H  0.42572191  0.78887756  0.63161296     0.08000
H2159       H  0.45832099  0.79822680  0.59891169     0.08000
H2160       H  0.43907980  0.75477580  0.60228680     0.04800
C2161       C  0.46383972  0.00371799  0.74189159    -0.21000
C2162       C  0.48049467  0.97152966  0.73290590    -0.07600
C2163       C  0.51107727  0.96115055  0.75078996     0.13300
C2164       C  0.52365281  0.98272412  0.77749002    -0.21100
C2165       C  0.50699743  0.01492195  0.78636985    -0.07600
C2166       C  0.47667319  0.02549264  0.76826045     0.13300
C2167       C  0.45712270  0.05901100  0.77733263    -0.24400
H2168       H  0.44071811  0.01216014  0.72775956     0.14500
H2169       H  0.54672269  0.97433310  0.79173123     0.14600
C2170       C  0.53130557  0.92827031  0.74099245    -0.24400
H2171       H  0.43348782  0.06286251  0.76099732     0.04800
H2172       H  0.47455887  0.08232955  0.77362459     0.08000
H2173       H  0.44836122  0.05782651  0.80448321     0.08000
H2174       H  0.53989474  0.93023046  0.71382617     0.08000
H2175       H  0.51443339  0.90448177  0.74433359     0.08000
H2176       H  0.55512814  0.92465309  0.75711670     0.04800
C2177       C  0.50938791  0.96735759  0.02696374    -0.21000
C2178       C  0.47362189  0.97642602  0.53154866    -0.07600
C2179       C  0.46440110  0.01047855  0.51948549     0.13300
C2180       C  0.48839233  0.02953404  0.49923815    -0.21100
C2181       C  0.51686322  0.01719208  0.98849204    -0.07600
C2182       C  0.53143362  0.98819417  0.00634766     0.13300
C2183       C  0.57008769  0.97944822  0.00457371    -0.24400
H2184       H  0.52068274  0.94469651  0.04021587     0.14500
H2185       H  0.48067103  0.05528674  0.48916703     0.14600
C2186       C  0.43004871  0.02749520  0.52902595    -0.24400
H2187       H  0.57690442  0.95601927  0.02063280     0.04800
H2188       H  0.58558091  0.00243206  0.01391560     0.08000
H2189       H  0.57799118  0.97349221  0.97799357     0.08000
H2190       H  0.42892676  0.03005246  0.55712271     0.08000
H2191       H  0.40780158  0.01092444  0.51999270     0.08000
H2192       H  0.42730346  0.05451180  0.51784908     0.04800
C2193       C  0.39718644  0.06545886  0.60614767    -0.21000
C2194       C  0.37952520  0.03303005  0.60935013    -0.07600
C2195       C  0.34483574  0.03002943  0.59546253     0.13300
C2196       C  0.33062172  0.05832980  0.57644570    -0.21100
C2197       C  0.34960785  0.08948406  0.57118388    -0.07600
C2198       C  0.38312889  0.09338476  0.58669081     0.13300
C2199       C  0.40562092  0.12579293  0.58088757    -0.24400
H2200       H  0.42340563  0.06804729  0.61674708     0.14500
H2201       H  0.30473824  0.05594599  0.56502524     0.14600
C2202       C  0.32259442  0.99704450  0.59906342    -0.24400
H2203       H  0.43157484  0.12347095  0.59377327     0.04800
H2204       H  0.39245520  0.14971180  0.59134644     0.08000
H2205       H  0.41069946  0.12914343  0.55307766     0.08000
H2206       H  0.31941520  0.99008145  0.62657596     0.08000
H2207       H  0.33474854  0.97474003  0.58482993     0.08000
H2208       H  0.29580219  0.00083082  0.58828465     0.04800
C2209       C  0.31733632  0.83281497  0.71975897    -0.21000
C2210       C  0.28958319  0.85416994  0.73152763    -0.07600
C2211       C  0.29065910  0.89143540  0.72438266     0.13300
C2212       C  0.31804014  0.90528488  0.70406718    -0.21100
C2213       C  0.34404869  0.88319286  0.69054846    -0.07600
C2214       C  0.34407973  0.84666364  0.69898084     0.13300
C2215       C  0.37135054  0.82164981  0.68477350    -0.24400
H2216       H  0.31700978  0.80452916  0.72494291     0.14500
H2217       H  0.31898394  0.93346341  0.69832003     0.14600
C2218       C  0.26315974  0.91712381  0.73724646    -0.24400
H2219       H  0.36710193  0.79389409  0.69354250     0.04800
H2220       H  0.39797382  0.82977731  0.69325852     0.08000
H2221       H  0.36985282  0.82179105  0.65637465     0.08000
H2222       H  0.26060809  0.91473194  0.76551572     0.08000
H2223       H  0.23750762  0.91195108  0.72469212     0.08000
H2224       H  0.27016911  0.94512060  0.73135939     0.04800
C2225       C  0.59741707  0.88438800  0.58462107    -0.21000
C2226       C  0.58904388  0.85466770  0.56425466    -0.07600
C2227       C  0.55473881  0.84097026  0.56512330     0.13300
C2228       C  0.52985307  0.85692005  0.58675702    -0.21100
C2229       C  0.53841930  0.88607741  0.60798082    -0.07600
C2230       C  0.57264718  0.90027667  0.60641856     0.13300
C2231       C  0.58365758  0.93130332  0.62819717    -0.24400
H2232       H  0.62388384  0.89507123  0.58376466     0.14500
H2233       H  0.50338376  0.84628742  0.58710753     0.14600
C2234       C  0.54479350  0.80861715  0.54477833    -0.24400
H2235       H  0.61200557  0.93758217  0.62491089     0.04800
H2236       H  0.57907557  0.92508224  0.65568905     0.08000
H2237       H  0.56845547  0.95531714  0.62081395     0.08000
H2238       H  0.56170595  0.78598595  0.55268293     0.08000
H2239       H  0.55211832  0.79470575  0.03815390     0.08000
H2240       H  0.51693653  0.80092183  0.54910951     0.04800
loop_ 
_geom_bond_atom_site_label_1 
_geom_bond_atom_site_label_2 
_geom_bond_distance 
_geom_bond_site_symmetry_2 
_ccdc_geom_bond_type 
O1           C16   1.251   1_565  A
O1           Al9   1.870       .  S
C2           O12   1.254       .  A
C2            O3   1.272       .  A
C2         C1109   1.498       .  S
O3           Al5   1.956       .  S
O4            C6   1.243       .  A
O4           Al5   1.819       .  S
Al5          O13   1.844       .  S
Al5          O15   1.985   1_565  S
Al5          O14   1.757       .  S
C6           O19   1.279       .  A
C6         C1058   1.479       .  S
O7           C17   1.251       .  A
O7           Al9   1.847       .  S
O8           C21   1.258       .  A
O8          Al18   1.871       .  S
Al9          O22   1.972       .  S
Al9          O19   2.006       .  S
Al9          O14   1.755       .  S
O10          C17   1.276       .  A
O10         Al18   1.984       .  S
O11          C20   1.283       .  A
O11         Al18   1.996       .  S
O12         Al18   1.861       .  S
O13          C20   1.255       .  A
O14         Al18   1.765       .  S
O15          C16   1.277       .  A
C16        C1074   1.495       .  S
C17        C1026   1.475       .  S
C20        C1042   1.491       .  S
C21          O22   1.276       .  A
C21        C1093   1.476       .  S
O23          C38   1.255   1_545  A
O23         Al31   1.869       .  S
C24          O34   1.254   1_655  A
C24          O25   1.269       .  A
C24         C994   1.483       .  S
O25         Al27   1.943   1_655  S
O26          C28   1.247       .  A
O26         Al27   1.841       .  S
Al27         O35   1.858       .  S
Al27         O37   1.969   1_545  S
Al27         O36   1.762       .  S
C28          O41   1.275       .  A
C28         C978   1.460       .  S
O29          C39   1.254       .  A
O29         Al31   1.857       .  S
O30          C43   1.257       .  A
O30         Al40   1.869       .  S
Al31         O44   1.949       .  S
Al31         O41   1.990       .  S
Al31         O36   1.763       .  S
O32          C39   1.277       .  A
O32         Al40   1.982       .  S
O33          C42   1.282       .  A
O33         Al40   1.987       .  S
O34         Al40   1.874       .  S
O35          C42   1.257       .  A
O36         Al40   1.764       .  S
O37          C38   1.272       .  A
C38        C1013   1.482       .  S
C39         C930   1.475       .  S
C42         C965   1.502       .  S
C43          O44   1.271       .  A
C43         C946   1.480       .  S
O45          C60   1.253       .  A
O45         Al53   1.872       .  S
C46          O56   1.255       .  A
C46          O47   1.272       .  A
C46         C869   1.495       .  S
O47         Al49   1.954       .  S
O48          C50   1.245       .  A
O48         Al49   1.832       .  S
Al49         O57   1.852       .  S
Al49         O59   1.974       .  S
Al49         O58   1.755       .  S
C50          O63   1.276       .  A
C50         C898   1.479       .  S
O51          C61   1.255       .  A
O51         Al53   1.864       .  S
O52          C65   1.258       .  A
O52         Al62   1.866       .  S
Al53         O66   1.963       .  S
Al53         O63   1.996       .  S
Al53         O58   1.759       .  S
O54          C61   1.275       .  A
O54         Al62   1.976       .  S
O55          C64   1.279       .  A
O55         Al62   1.985       .  S
O56         Al62   1.862       .  S
O57          C64   1.254       .  A
O58         Al62   1.766       .  S
O59          C60   1.276       .  A
C60        C1090   1.496       .  S
C61         C914   1.470       .  S
C64         C882   1.490       .  S
C65          O66   1.275       .  A
C65        C1010   1.474       .  S
O67          C82   1.277       .  A
O67         Al75   1.977       .  S
C68          O78   1.269       .  A
C68          O69   1.255   1_455  A
C68         C917   1.496       .  S
O69         Al71   1.872       .  S
O70          C72   1.276       .  A
O70         Al71   1.977       .  S
Al71         O79   1.991       .  S
Al71         O81   1.868       .  S
Al71         O80   1.759       .  S
C72          O85   1.252       .  A
C72         C834   1.470       .  S
O73          C83   1.279       .  A
O73         Al75   2.007       .  S
O74          C87   1.273       .  A
O74         Al84   1.979   1_545  S
Al75         O88   1.869       .  S
Al75         O85   1.851       .  S
Al75         O80   1.761       .  S
O76          C83   1.244       .  A
O76         Al84   1.832       .  S
O77          C86   1.257       .  A
O77         Al84   1.850       .  S
O78         Al84   1.950   1_455  S
O79          C86   1.283       .  A
O80         Al84   1.763       .  S
O81          C82   1.256       .  A
C82         C821   1.484       .  S
C83         C981   1.462       .  S
C86         C962   1.496       .  S
C87          O88   1.255   1_545  A
C87         C850   1.484       .  S
O89         C104   1.275       .  A
O89         Al97   1.957       .  S
C90         O100   1.270       .  A
C90          O91   1.255       .  A
C90         C802   1.491       .  S
O91         Al93   1.869       .  S
O92          C94   1.275       .  A
O92         Al93   1.982       .  S
Al93        O101   1.991       .  S
Al93        O103   1.867       .  S
Al93        O102   1.768       .  S
C94         O107   1.254       .  A
C94         C997   1.476       .  S
O95         C105   1.274       .  A
O95         Al97   1.983       .  S
O96         C109   1.274       .  A
O96        Al106   1.974       .  S
Al97        O110   1.875       .  S
Al97        O107   1.866       .  S
Al97        O102   1.760       .  S
O98         C105   1.245       .  A
O98        Al106   1.837       .  S
O99         C108   1.257       .  A
O99        Al106   1.862       .  S
O100       Al106   1.946       .  S
O101        C108   1.281       .  A
O102       Al106   1.760       .  S
O103        C104   1.258       .  A
C104        C853   1.478       .  S
C105        C789   1.456       .  S
C108        C773   1.493       .  S
C109        O110   1.258       .  A
C109        C754   1.490       .  S
O111        C126   1.277       .  A
O111       Al119   1.969       .  S
C112        O122   1.275       .  A
C112        O113   1.252       .  A
C112        C933   1.497       .  S
O113       Al115   1.862       .  S
O114        C116   1.276       .  A
O114       Al115   1.977       .  S
Al115       O123   1.978       .  S
Al115       O125   1.869       .  S
Al115       O124   1.765       .  S
C116        O129   1.258       .  A
C116        C722   1.475       .  S
O117        C127   1.279       .  A
O117       Al119   2.015       .  S
O118        C131   1.275       .  A
O118       Al128   1.975       .  S
Al119       O132   1.863       .  S
Al119       O129   1.873       .  S
Al119       O124   1.756       .  S
O120        C127   1.242       .  A
O120       Al128   1.827       .  S
O121        C130   1.252       .  A
O121       Al128   1.845       .  S
O122       Al128   1.952       .  S
O123        C130   1.278       .  A
O124       Al128   1.757       .  S
O125        C126   1.258       .  A
C126        C738   1.484       .  S
C127        C706   1.476       .  S
C130        C690   1.486       .  S
C131        O132   1.253       .  A
C131        C674   1.484       .  S
O133        C148   1.274       .  A
O133       Al141   1.958       .  S
C134        O144   1.272       .  A
C134        O135   1.254   1_655  A
C134        C610   1.498       .  S
O135       Al137   1.866       .  S
O136        C138   1.277       .  A
O136       Al137   1.983       .  S
Al137       O145   2.000       .  S
Al137       O147   1.873       .  S
Al137       O146   1.766       .  S
C138        O151   1.252       .  A
C138        C866   1.470       .  S
O139        C149   1.273       .  A
O139       Al141   1.993       .  S
O140        C153   1.275       .  A
O140       Al150   1.981       .  S
Al141       O154   1.867       .  S
Al141       O151   1.850       .  S
Al141       O146   1.764       .  S
O142        C149   1.242       .  A
O142       Al150   1.825       .  S
O143        C152   1.256       .  A
O143       Al150   1.855       .  S
O144       Al150   1.958   1_655  S
O145        C152   1.283       .  A
O146       Al150   1.759       .  S
O147        C148   1.259       .  A
C148        C658   1.480       .  S
C149        C642   1.458       .  S
C152        C626   1.501       .  S
C153        O154   1.255       .  A
C153        C741   1.483       .  S
O155        C170   1.253       .  A
O155       Al163   1.872       .  S
C156        O166   1.253   1_455  A
C156        O157   1.270       .  A
C156        C725   1.481       .  S
O157       Al159   1.947   1_455  S
O158        C160   1.244       .  A
O158       Al159   1.830       .  S
Al159       O167   1.845       .  S
Al159       O169   1.974       .  S
Al159       O168   1.762       .  S
C160        O173   1.276       .  A
C160        C645   1.459       .  S
O161        C171   1.255       .  A
O161       Al163   1.852       .  S
O162        C175   1.258       .  A
O162       Al172   1.872       .  S
Al163       O176   1.964       .  S
Al163       O173   1.999       .  S
Al163       O168   1.762       .  S
O164        C171   1.277       .  A
O164       Al172   1.982       .  S
O165        C174   1.282       .  A
O165       Al172   1.991       .  S
O166       Al172   1.868       .  S
O167        C174   1.255       .  A
O168       Al172   1.764       .  S
O169        C170   1.276       .  A
C170        C581   1.494       .  S
C171        C805   1.481       .  S
C174        C629   1.489       .  S
C175        O176   1.274       .  A
C175        C594   1.485       .  S
O177       C1312   1.276   1_554  A
O177       Al185   1.970       .  S
C178        O188   1.270       .  A
C178       O1299   1.255       .  A
C178       C1029   1.496       .  S
O179       C1298   1.255       .  A
O179       Al181   1.869       .  S
O180        C182   1.278       .  A
O180      Al1301   1.990   1_554  S
Al181       O189   1.992       .  S
Al181       O191   1.861       .  S
Al181      O1300   1.983       .  S
Al181      O1310   1.764       .  S
C182        O195   1.255       .  A
C182        C565   1.487       .  S
O183        C193   1.279       .  A
O183       Al185   2.005       .  S
O184        C197   1.273       .  A
O184       Al194   1.971       .  S
Al185       O198   1.874       .  S
Al185       O195   1.854       .  S
Al185       O190   1.758       .  S
O186        C193   1.246       .  A
O186       Al194   1.829       .  S
O187        C196   1.256       .  A
O187      Al1314   1.848       .  S
O188       Al194   1.947       .  S
O189        C196   1.282       .  A
O190       Al194   1.758       .  S
O190      Al1301   1.764   1_554  S
O191        C192   1.258       .  A
C192       O1297   1.279       .  A
C192        C546   1.477       .  S
C193        C901   1.481       .  S
Al194      O1307   1.846   1_554  S
C196        C885   1.490       .  S
C197        O198   1.256       .  A
C197        C661   1.484       .  S
O199        C214   1.255       .  A
O199       Al207   1.871       .  S
C200        O210   1.253       .  A
C200        O201   1.271       .  A
C200       C1653   1.482   1_554  S
O201      Al1323   1.951       .  S
O202        C204   1.248       .  A
O202       Al203   1.839       .  S
Al203       O213   1.983       .  S
Al203      O1321   1.951       .  S
Al203      O1331   1.853       .  S
Al203      O1332   1.762       .  S
C204        O217   1.274       .  A
C204        C786   1.456       .  S
O205        C215   1.253       .  A
O205       Al207   1.853       .  S
O206        C219   1.257       .  A
O206       Al216   1.866       .  S
Al207       O217   1.982       .  S
Al207      O1340   1.949       .  S
Al207      O1332   1.761       .  S
O208       C1335   1.276   1_554  A
O208       Al216   1.981       .  S
O209        C218   1.280       .  A
O209       Al216   1.988       .  S
O210       Al216   1.867       .  S
O211        C218   1.256       .  A
O211      Al1323   1.857       .  S
O212       Al216   1.765       .  S
O212      Al1323   1.761       .  S
O212      Al1327   1.764   1_554  S
O213        C214   1.275       .  A
C214        C597   1.488       .  S
C215       O1328   1.278       .  A
C215        C498   1.482       .  S
C218        C770   1.492       .  S
C219        O220   1.272       .  A
C219        C517   1.479       .  S
O220      Al1327   1.950   1_554  S
O221        C236   1.274       .  A
O221       Al229   1.957       .  S
C222        O232   1.273       .  A
C222        O223   1.256       .  A
C222        C501   1.498       .  S
O223       Al225   1.878       .  S
O224        C226   1.277       .  A
O224       Al225   1.991       .  S
Al225       O233   1.997       .  S
Al225       O235   1.869       .  S
Al225       O234   1.766       .  S
C226        O239   1.255       .  A
C226        C482   1.481       .  S
O227        C237   1.281       .  A
O227       Al229   2.013       .  S
O228        C241   1.273       .  A
O228       Al238   1.977       .  S
Al229       O242   1.861       .  S
Al229       O239   1.864       .  S
Al229       O234   1.755       .  S
O230        C237   1.244       .  A
O230       Al238   1.824       .  S
O231        C240   1.256       .  A
O231       Al238   1.856       .  S
O232       Al238   1.948       .  S
O233        C240   1.283       .  A
O234       Al238   1.763       .  S
O235        C236   1.259       .  A
C236        C677   1.479       .  S
C237        C466   1.479       .  S
C240        C453   1.500       .  S
C241        O242   1.250       .  A
C241        C549   1.484       .  S
O243        C258   1.253       .  A
O243       Al251   1.866       .  S
C244        O254   1.250       .  A
C244        O245   1.273       .  A
C244       C1605   1.492   1_554  S
O245      Al1367   1.963       .  S
O246        C248   1.244       .  A
O246       Al247   1.822       .  S
Al247       O257   1.971       .  S
Al247      O1365   1.958       .  S
Al247      O1375   1.843       .  S
Al247      O1376   1.763       .  S
C248        O261   1.279       .  A
C248        C709   1.474       .  S
O249        C259   1.256       .  A
O249       Al251   1.863       .  S
O250        C263   1.254       .  A
O250       Al260   1.863       .  S
Al251       O261   2.015       .  S
Al251      O1384   1.968       .  S
Al251      O1376   1.763       .  S
O252       C1379   1.275   1_554  A
O252       Al260   1.972       .  S
O253        C262   1.280       .  A
O253       Al260   1.982       .  S
O254       Al260   1.857       .  S
O255        C262   1.254       .  A
O255      Al1367   1.837       .  S
O256       Al260   1.763       .  S
O256      Al1367   1.761       .  S
O256      Al1371   1.761   1_554  S
O257        C258   1.274       .  A
C258        C949   1.478       .  S
C259       O1372   1.277       .  A
C259        C434   1.479       .  S
C262        C693   1.487       .  S
C263        O264   1.276       .  A
C263       C1077   1.481       .  S
O264      Al1371   1.972   1_554  S
O265        C280   1.276       .  A
O265       Al273   1.964       .  S
C266        O276   1.273       .  A
C266        O267   1.253       .  A
C266        C437   1.500       .  S
O267       Al269   1.869       .  S
O268        C270   1.277       .  A
O268       Al269   1.984       .  S
Al269       O277   1.989       .  S
Al269       O279   1.873       .  S
Al269       O278   1.765       .  S
C270        O283   1.256       .  A
C270        C530   1.476       .  S
O271        C281   1.279       .  A
O271       Al273   2.011       .  S
O272        C285   1.274       .  A
O272       Al282   1.971   1_565  S
Al273       O286   1.860       .  S
Al273       O283   1.865       .  S
Al273       O278   1.755       .  S
O274        C281   1.245       .  A
O274       Al282   1.830       .  S
O275        C284   1.254       .  A
O275       Al282   1.848       .  S
O276       Al282   1.950       .  S
O277        C284   1.281       .  A
O278       Al282   1.759       .  S
O279        C280   1.259       .  A
C280        C757   1.482       .  S
C281       C1061   1.479       .  S
C284       C1045   1.489       .  S
C285        O286   1.252   1_565  A
C285        C418   1.475       .  S
O287       C1422   1.273   1_554  A
O287       Al295   1.962       .  S
C288        O298   1.276       .  A
C288       O1409   1.253       .  A
C288        C370   1.498       .  S
O289       C1408   1.253       .  A
O289       Al291   1.863       .  S
O290        C292   1.276       .  A
O290      Al1411   1.982   1_554  S
Al291       O299   1.983       .  S
Al291       O301   1.868       .  S
Al291      O1410   1.983       .  S
Al291      O1420   1.765       .  S
C292        O305   1.254       .  A
C292       C1106   1.473       .  S
O293        C303   1.275       .  A
O293       Al295   1.991       .  S
O294        C307   1.278       .  A
O294       Al304   1.984       .  S
Al295       O308   1.875       .  S
Al295       O305   1.856       .  S
Al295       O300   1.764       .  S
O296        C303   1.245       .  A
O296       Al304   1.821       .  S
O297        C306   1.256       .  A
O297      Al1424   1.853       .  S
O298       Al304   1.972       .  S
O299        C306   1.279       .  A
O300       Al304   1.757       .  S
O300      Al1411   1.764   1_554  S
O301        C302   1.258       .  A
C302       O1407   1.272       .  A
C302        C421   1.475       .  S
C303        C402   1.466       .  S
Al304      O1417   1.857   1_554  S
C306        C386   1.493       .  S
C307        O308   1.254       .  A
C307        C818   1.498       .  S
O309        C324   1.257       .  A
O309       Al317   1.874       .  S
C310        O320   1.252       .  A
C310        O311   1.273       .  A
C310        C837   1.497       .  S
O311       Al313   1.961       .  S
O312        C314   1.242       .  A
O312       Al313   1.822       .  S
Al313       O321   1.851       .  S
Al313       O323   1.968       .  S
Al313       O322   1.758       .  S
C314        O327   1.276       .  A
C314        C405   1.466       .  S
O315        C325   1.254       .  A
O315       Al317   1.866       .  S
O316        C329   1.258       .  A
O316       Al326   1.869       .  S
Al317       O330   1.979       .  S
Al317       O327   1.999       .  S
Al317       O322   1.767       .  S
O318        C325   1.273       .  A
O318       Al326   1.971       .  S
O319        C328   1.278       .  A
O319       Al326   1.983       .  S
O320       Al326   1.850       .  S
O321        C328   1.254       .  A
O322       Al326   1.765       .  S
O323        C324   1.275       .  A
C324        C357   1.490       .  S
C325        C613   1.472       .  S
C328        C389   1.493       .  S
C329        O330   1.277       .  A
C329        C578   1.475       .  S
O331        C346   1.252       .  A
O331       Al339   1.864       .  S
C332        O342   1.256       .  A
C332        O333   1.272       .  A
C332        C562   1.489       .  S
O333       Al335   1.949       .  S
O334        C336   1.243       .  A
O334       Al335   1.820       .  S
Al335       O343   1.844       .  S
Al335       O345   1.971       .  S
Al335       O344   1.760       .  S
C336        O349   1.281       .  A
C336        C469   1.478       .  S
O337        C347   1.256       .  A
O337       Al339   1.875       .  S
O338        C351   1.258       .  A
O338       Al348   1.866       .  S
Al339       O352   1.974       .  S
Al339       O349   2.017       .  S
Al339       O344   1.756       .  S
O340        C347   1.279       .  A
O340       Al348   1.998       .  S
O341        C350   1.284       .  A
O341       Al348   2.009       .  S
O342       Al348   1.869       .  S
O343        C350   1.253       .  A
O344       Al348   1.763       .  S
O345        C346   1.273       .  A
C346        C514   1.480       .  S
C347        C373   1.488       .  S
C350        C450   1.501       .  S
C351        O352   1.278       .  A
C351        C354   1.487       .  S
C353        C354   1.412       .  A
C353        C358   1.406       .  A
C353        H360   1.084       .  S
C354        C355   1.408       .  A
C355        C356   1.406       .  A
C355        C362   1.507       .  S
C356        C357   1.413       .  A
C356        H361   1.084       .  S
C357        C358   1.410       .  A
C358        C359   1.507       .  S
C359        H363   1.111       .  S
C359        H364   1.109       .  S
C359        H365   1.110       .  S
C362        H366   1.109       .  S
C362        H367   1.110       .  S
C362        H368   1.111       .  S
C369        C370   1.402       .  A
C369        C374   1.408       .  A
C369        H376   1.084       .  S
C370        C371   1.426       .  A
C371        C372   1.412       .  A
C371        C378   1.509       .  S
C372        C373   1.400       .  A
C372        H377   1.084       .  S
C373        C374   1.417       .  A
C374        C375   1.502       .  S
C375        H379   1.110       .  S
C375        H380   1.109       .  S
C375        H381   1.107       .  S
C378        H382   1.111   1_554  S
C378        H383   1.107       .  S
C378        H384   1.111       .  S
C385        C386   1.414       .  A
C385        C390   1.405       .  A
C385        H392   1.083       .  S
C386        C387   1.410       .  A
C387        C388   1.407       .  A
C387        C394   1.507       .  S
C388        C389   1.415       .  A
C388        H393   1.084       .  S
C389        C390   1.409       .  A
C390        C391   1.507       .  S
C391        H395   1.111       .  S
C391        H396   1.110       .  S
C391        H397   1.111       .  S
C394        H398   1.111       .  S
C394        H399   1.110       .  S
C394        H400   1.111       .  S
C401        C402   1.405       .  A
C401        C406   1.399       .  A
C401        H408   1.086       .  S
C402        C403   1.412       .  A
C403        C404   1.401       .  A
C403        C410   1.502       .  S
C404        C405   1.406       .  A
C404        H409   1.086       .  S
C405        C406   1.410       .  A
C406        C407   1.499       .  S
C407        H411   1.109       .  S
C407        H412   1.100       .  S
C407        H413   1.110       .  S
C410        H414   1.104       .  S
C410        H415   1.109       .  S
C410        H416   1.110       .  S
C417        C418   1.410       .  A
C417        C422   1.398       .  A
C417        H424   1.083       .  S
C418        C419   1.406       .  A
C419        C420   1.403       .  A
C419        C426   1.505       .  S
C420        C421   1.411       .  A
C420        H425   1.083       .  S
C421        C422   1.408       .  A
C422       C1543   1.507       .  S
C423       C1542   1.506       .  S
C423        H427   1.111       .  S
C423        H428   1.111       .  S
C423        H429   1.111       .  S
C426        H430   1.111       .  S
C426        H431   1.109       .  S
C426        H432   1.111       .  S
C433        C434   1.394       .  A
C433        C438   1.407       .  A
C433        H440   1.082       .  S
C434        C435   1.416       .  A
C435        C436   1.405       .  A
C435        C442   1.508       .  S
C436        C437   1.405       .  A
C436        H441   1.084       .  S
C437        C438   1.431       .  A
C438        C439   1.510       .  S
C439        H443   1.111       .  S
C439        H444   1.110       .  S
C439        H445   1.110       .  S
C442        H446   1.109       .  S
C442        H447   1.109       .  S
C442        H448   1.111       .  S
C449        C450   1.417       .  A
C449        C454   1.408       .  A
C449        H456   1.084       .  S
C450        C451   1.411       .  A
C451        C452   1.410       .  A
C451        C458   1.506       .  S
C452        C453   1.416       .  A
C452        H457   1.084       .  S
C453        C454   1.411       .  A
C454        C455   1.507       .  S
C455        H459   1.111       .  S
C455        H460   1.110       .  S
C455        H461   1.110       .  S
C458        H462   1.111       .  S
C458        H463   1.110       .  S
C458        H464   1.111       .  S
C465        C470   1.401   1_556  A
C465       C1586   1.409       .  A
C465        H472   1.085       .  S
C466        C467   1.406       .  A
C466       C1585   1.413       .  A
C467       C1588   1.401       .  A
C467        C474   1.503       .  S
C468        C469   1.413       .  A
C468       C1587   1.403       .  A
C468        H473   1.085       .  S
C469        C470   1.409       .  A
C470        C471   1.500       .  S
C471        H475   1.109       .  S
C471        H476   1.103       .  S
C471        H477   1.110       .  S
C474        H478   1.110       .  S
C474        H479   1.102       .  S
C474        H480   1.111       .  S
C481        C482   1.391       .  A
C481        C486   1.401       .  A
C481        H488   1.080       .  S
C482        C483   1.417       .  A
C483        C484   1.407       .  A
C483        C490   1.505       .  S
C484        C485   1.404       .  A
C484       H1609   1.085       .  S
C485       C1364   1.494       .  S
C485        C486   1.428       .  A
C486        C487   1.511       .  S
C487        H491   1.111       .  S
C487        H492   1.107       .  S
C487        H493   1.110       .  S
H489       C1604   1.084       .  S
C490        H494   1.108       .  S
C490        H495   1.108       .  S
C490        H496   1.111       .  S
C497        C498   1.391       .  A
C497        C502   1.405       .  A
C497        H504   1.084       .  S
C498        C499   1.422       .  A
C499        C500   1.405       .  A
C499        C506   1.509       .  S
C500        C501   1.400       .  A
C500        H505   1.084       .  S
C501        C502   1.428       .  A
C502        C503   1.499       .  S
C503        H507   1.111       .  S
C503        H508   1.109       .  S
C503        H509   1.110       .  S
C506        H510   1.108       .  S
C506        H511   1.111       .  S
C506        H512   1.111       .  S
C513        C514   1.411       .  A
C513        C518   1.400       .  A
C513        H520   1.084       .  S
C514        C515   1.407       .  A
C515        C516   1.404       .  A
C515        C522   1.506       .  S
C516        C517   1.412       .  A
C516        H521   1.084       .  S
C517        C518   1.408       .  A
C518        C519   1.508       .  S
C519        H523   1.111       .  S
C519        H525   1.110       .  S
C519       H1644   1.109       .  S
C522        H526   1.109       .  S
C522        H527   1.111       .  S
C522        H528   1.111       .  S
H524       C1639   1.110       .  S
C529        C530   1.403       .  A
C529        C534   1.406       .  A
C529        H536   1.085       .  S
C530        C531   1.414       .  A
C531        C532   1.403       .  A
C531        C538   1.503       .  S
C532        C533   1.400       .  A
C532        H537   1.084       .  S
C533       C1320   1.478       .  S
C533        C534   1.416       .  A
C534       C1655   1.507       .  S
C535       C1654   1.508   1_554  S
C535        H539   1.111       .  S
C535        H540   1.109       .  S
C535        H541   1.111       .  S
C538        H542   1.109       .  S
C538        H543   1.105       .  S
C538        H544   1.110       .  S
C545        C546   1.411       .  A
C545        C550   1.405       .  A
C545        H552   1.084       .  S
C546        C547   1.404       .  A
C547        C548   1.401       .  A
C547       C1674   1.507       .  S
C548        C549   1.414       .  A
C548        H553   1.084       .  S
C549        C550   1.408       .  A
C550        C551   1.506       .  S
C551        H555   1.111       .  S
C551        H556   1.111       .  S
C551        H557   1.109       .  S
C554       C1667   1.506       .  S
C554        H558   1.111       .  S
C554        H559   1.110       .  S
C554        H560   1.111       .  S
C561        C562   1.414       .  A
C561        C566   1.406       .  A
C561        H568   1.084       .  S
C562        C563   1.410       .  A
C563        C564   1.404       .  A
C563        C570   1.507       .  S
C564        C565   1.412       .  A
C564        H569   1.084       .  S
C565        C566   1.407       .  A
C566        C567   1.504       .  S
C567        H571   1.111       .  S
C567        H572   1.107       .  S
C567        H573   1.110       .  S
C570        H574   1.111       .  S
C570        H575   1.110       .  S
C570        H576   1.111       .  S
C577        C578   1.395       .  A
C577        C582   1.407       .  A
C577        H584   1.084       .  S
C578        C579   1.416       .  A
C579        C580   1.400       .  A
C579        C586   1.504       .  S
C580        C581   1.401       .  A
C580        H585   1.084       .  S
C581        C582   1.430       .  A
C582        C583   1.509       .  S
C583        H587   1.111       .  S
C583        H588   1.110       .  S
C583        H589   1.109       .  S
C586        H590   1.108       .  S
C586        H591   1.107       .  S
C586        H592   1.110       .  S
C593        C594   1.412       .  A
C593        C598   1.408       .  A
C593        H600   1.084       .  S
C594        C595   1.408       .  A
C595        C596   1.403       .  A
C595        C602   1.507       .  S
C596        C597   1.412       .  A
C596       H1721   1.084       .  S
C597        C598   1.408       .  A
C598        C599   1.505       .  S
C599        H603   1.111       .  S
C599        H604   1.109       .  S
C599        H605   1.110       .  S
H601       C1716   1.084       .  S
C602        H606   1.109       .  S
C602        H607   1.110       .  S
C602       H1728   1.111       .  S
H608       C1722   1.111       .  S
C609        C610   1.417       .  A
C609        C614   1.406       .  A
C609        H616   1.083       .  S
C610        C611   1.420       .  A
C611        C612   1.406       .  A
C611        C618   1.507       .  S
C612        C613   1.402       .  A
C612        H617   1.085       .  S
C613        C614   1.403       .  A
C614        C615   1.507       .  S
C615        H619   1.111       .  S
C615        H620   1.110       .  S
C615        H621   1.111       .  S
C618        H622   1.105       .  S
C618        H623   1.109       .  S
C618        H624   1.111       .  S
C625        C626   1.414       .  A
C625       C1750   1.409       .  A
C625        H632   1.084       .  S
C626        C627   1.413   1_455  A
C627        C628   1.413   1_554  A
C627        C634   1.506       .  S
C628       C1749   1.415       .  A
C628       H1753   1.084       .  S
C629        C630   1.408       .  A
C629       C1748   1.415   1_655  A
C630       C1745   1.407       .  A
C630        C631   1.507       .  S
C631        H635   1.111       .  S
C631        H636   1.110       .  S
C631        H637   1.110       .  S
H633       C1748   1.084       .  S
C634        H638   1.110       .  S
C634        H639   1.111       .  S
C634        H640   1.111       .  S
C641        C642   1.403       .  A
C641        C646   1.401   1_455  A
C641        H648   1.086       .  S
C642        C643   1.411       .  A
C643        C644   1.403   1_455  A
C643        C650   1.508       .  S
C644        C645   1.404       .  A
C644        H649   1.084       .  S
C645        C646   1.411       .  A
C646        C647   1.507       .  S
C647        H651   1.110       .  S
C647        H652   1.110       .  S
C647        H653   1.108   1_655  S
C650        H654   1.110       .  S
C650        H655   1.111       .  S
C650        H656   1.110   1_455  S
C657        C658   1.410       .  A
C657        C662   1.407       .  A
C657        H664   1.084       .  S
C658        C659   1.408       .  A
C659        C660   1.402       .  A
C659        C666   1.507       .  S
C660        C661   1.411       .  A
C660        H665   1.084       .  S
C661        C662   1.410       .  A
C662        C663   1.507       .  S
C663        H667   1.111       .  S
C663        H668   1.111   1_554  S
C663        H669   1.109       .  S
C666        H670   1.110       .  S
C666        H671   1.110       .  S
C666        H672   1.111       .  S
C673        C674   1.412       .  A
C673        C678   1.400       .  A
C673        H680   1.084       .  S
C674        C675   1.409       .  A
C675        C676   1.406       .  A
C675        C682   1.506       .  S
C676        C677   1.411       .  A
C676        H681   1.084       .  S
C677        C678   1.406       .  A
C678        C679   1.508       .  S
C679        H683   1.111       .  S
C679        H684   1.110       .  S
C679        H685   1.109       .  S
C682        H686   1.110       .  S
C682        H687   1.109       .  S
C682        H688   1.111       .  S
C689        C690   1.414       .  A
C689        C694   1.406       .  A
C689        H696   1.084       .  S
C690        C691   1.409       .  A
C691        C692   1.402       .  A
C691        C698   1.507       .  S
C692        C693   1.413       .  A
C692        H697   1.084       .  S
C693        C694   1.410       .  A
C694        C695   1.507       .  S
C695        H699   1.111       .  S
C695        H700   1.110       .  S
C695        H701   1.110       .  S
C698        H702   1.110       .  S
C698        H703   1.111       .  S
C698        H704   1.111       .  S
C705        C706   1.409       .  A
C705        C710   1.404       .  A
C705        H712   1.085       .  S
C706        C707   1.411       .  A
C707        C708   1.402       .  A
C707        C714   1.500       .  S
C708        C709   1.407       .  A
C708        H713   1.085       .  S
C709        C710   1.411       .  A
C710        C711   1.501       .  S
C711        H715   1.110       .  S
C711        H716   1.103       .  S
C711        H717   1.110       .  S
C714        H718   1.110       .  S
C714        H719   1.100       .  S
C714        H720   1.110       .  S
C721        C722   1.401       .  A
C721        C726   1.405       .  A
C721        H728   1.084       .  S
C722        C723   1.414       .  A
C723        C724   1.406       .  A
C723        C730   1.506       .  S
C724        C725   1.404       .  A
C724        H729   1.083       .  S
C725        C726   1.417       .  A
C726        C727   1.507       .  S
C727        H731   1.111       .  S
C727        H732   1.109       .  S
C727        H733   1.110       .  S
C730        H734   1.110       .  S
C730        H735   1.107       .  S
C730        H736   1.110       .  S
C737        C738   1.413       .  A
C737        C742   1.406       .  A
C737        H744   1.084       .  S
C738        C739   1.408       .  A
C739        C740   1.403       .  A
C739        C746   1.507       .  S
C740        C741   1.412       .  A
C740        H745   1.084       .  S
C741        C742   1.406       .  A
C742        C743   1.506       .  S
C743        H747   1.111       .  S
C743        H748   1.111       .  S
C743        H749   1.109       .  S
C746        H750   1.110       .  S
C746        H751   1.109       .  S
C746        H752   1.111       .  S
C753        C754   1.413       .  A
C753        C758   1.405       .  A
C753        H760   1.084       .  S
C754        C755   1.412       .  A
C755        C756   1.407       .  A
C755        C762   1.506       .  S
C756        C757   1.409       .  A
C756        H761   1.084       .  S
C757        C758   1.406       .  A
C758        C759   1.507       .  S
C759        H763   1.111       .  S
C759        H764   1.111       .  S
C759        H765   1.110       .  S
C762        H766   1.110       .  S
C762        H767   1.110       .  S
C762        H768   1.111       .  S
C769        C770   1.412       .  A
C769        C774   1.408       .  A
C769        H776   1.084       .  S
C770        C771   1.411       .  A
C771        C772   1.410       .  A
C771        C778   1.506       .  S
C772        C773   1.412       .  A
C772        H777   1.084       .  S
C773        C774   1.411       .  A
C774        C775   1.507       .  S
C775        H779   1.111       .  S
C775        H780   1.110       .  S
C775        H781   1.111       .  S
C778        H782   1.111       .  S
C778        H783   1.110       .  S
C778        H784   1.111       .  S
C785        C786   1.402       .  A
C785        C790   1.401       .  A
C785        H792   1.085       .  S
C786        C787   1.410       .  A
C787        C788   1.400       .  A
C787        C794   1.508       .  S
C788        C789   1.402       .  A
C788        H793   1.085       .  S
C789        C790   1.413       .  A
C790        C791   1.508       .  S
C791        H795   1.111       .  S
C791        H796   1.109       .  S
C791        H797   1.110       .  S
C794        H798   1.110       .  S
C794        H799   1.107       .  S
C794        H800   1.111       .  S
C801        C802   1.416       .  A
C801        C806   1.407       .  A
C801        H808   1.084       .  S
C802        C803   1.412       .  A
C803        C804   1.403       .  A
C803        C810   1.507       .  S
C804        C805   1.410       .  A
C804        H809   1.085       .  S
C805        C806   1.405       .  A
C806        C807   1.506       .  S
C807        H811   1.111       .  S
C807        H812   1.110       .  S
C807        H813   1.111       .  S
C810        H814   1.110       .  S
C810        H815   1.110       .  S
C810        H816   1.111       .  S
C817        C818   1.400       .  A
C817        C822   1.405       .  A
C817        H824   1.084       .  S
C818        C819   1.431       .  A
C819        C820   1.408       .  A
C819        C826   1.508       .  S
C820        C821   1.395       .  A
C820        H825   1.084       .  S
C821        C822   1.421       .  A
C822        C823   1.508       .  S
C823        H827   1.111       .  S
C823        H828   1.109       .  S
C823        H829   1.109       .  S
C826        H830   1.108       .  S
C826        H832   1.111       .  S
C826       H1951   1.110       .  S
H831       C1946   1.108       .  S
C833        C834   1.406       .  A
C833        C838   1.407       .  A
C833        H840   1.085       .  S
C834        C835   1.401       .  A
C835        C836   1.403       .  A
C835        C842   1.507       .  S
C836        C837   1.418       .  A
C836        H841   1.083       .  S
C837        C838   1.417       .  A
C838        C839   1.507       .  S
C839        H843   1.111       .  S
C839        H844   1.110       .  S
C839        H845   1.108       .  S
C842        H846   1.111       .  S
C842        H847   1.110       .  S
C842        H848   1.111       .  S
C849        C850   1.412       .  A
C849        C854   1.401       .  A
C849        H856   1.083       .  S
C850        C851   1.408       .  A
C851        C852   1.406       .  A
C851        C858   1.506       .  S
C852        C853   1.411       .  A
C852        H857   1.084       .  S
C853        C854   1.405       .  A
C854        C855   1.507       .  S
C855        H859   1.111       .  S
C855        H860   1.110       .  S
C855        H861   1.110       .  S
C858        H862   1.110       .  S
C858        H863   1.110       .  S
C858        H864   1.111       .  S
C865        C866   1.404       .  A
C865        C870   1.404       .  A
C865        H872   1.085       .  S
C866        C867   1.403       .  A
C867        C868   1.405       .  A
C867        C874   1.507       .  S
C868        C869   1.417       .  A
C868        H873   1.083       .  S
C869        C870   1.418       .  A
C870        C871   1.508       .  S
C871        H875   1.111       .  S
C871        H876   1.110       .  S
C871        H877   1.107       .  S
C874        H878   1.111       .  S
C874        H879   1.110       .  S
C874        H880   1.111       .  S
C881        C882   1.413       .  A
C881        C886   1.407       .  A
C881        H888   1.084       .  S
C882        C883   1.410       .  A
C883        C884   1.405       .  A
C883        C890   1.507       .  S
C884        C885   1.413       .  A
C884        H889   1.084       .  S
C885        C886   1.411       .  A
C886        C887   1.507       .  S
C887        H891   1.111       .  S
C887        H892   1.110       .  S
C887        H893   1.111       .  S
C890        H894   1.110       .  S
C890        H895   1.110       .  S
C890        H896   1.111       .  S
C897        C898   1.412       .  A
C897        C902   1.401       .  A
C897        H904   1.084       .  S
C898        C899   1.407       .  A
C899        C900   1.401       .  A
C899        C906   1.505       .  S
C900        C901   1.415       .  A
C900        H905   1.085       .  S
C901        C902   1.408       .  A
C902        C903   1.504       .  S
C903        H907   1.111       .  S
C903        H908   1.110       .  S
C903        H909   1.103       .  S
C906        H910   1.102       .  S
C906        H911   1.110       .  S
C906        H912   1.111       .  S
C913        C914   1.402       .  A
C913        C918   1.405       .  A
C913        H920   1.085       .  S
C914        C915   1.404       .  A
C915        C916   1.406       .  A
C915        C922   1.506       .  S
C916        C917   1.416       .  A
C916        H921   1.083       .  S
C917        C918   1.420       .  A
C918        C919   1.508       .  S
C919        H923   1.111       .  S
C919        H924   1.107       .  S
C919        H925   1.110       .  S
C922        H926   1.110       .  S
C922        H927   1.111       .  S
C922        H928   1.111       .  S
C929        C930   1.394       .  A
C929        C934   1.408       .  A
C929        H936   1.084       .  S
C930        C931   1.416       .  A
C931        C932   1.402       .  A
C931        C938   1.508       .  S
C932        C933   1.403       .  A
C932        H937   1.084       .  S
C933        C934   1.432       .  A
C934        C935   1.510       .  S
C935        H939   1.111       .  S
C935        H940   1.110       .  S
C935        H941   1.110       .  S
C938        H942   1.108       .  S
C938        H943   1.109       .  S
C938        H944   1.111       .  S
C945        C946   1.413       .  A
C945        C950   1.405       .  A
C945        H952   1.084       .  S
C946        C947   1.409       .  A
C947        C948   1.399       .  A
C947        C954   1.508       .  S
C948        C949   1.409       .  A
C948        H953   1.084       .  S
C949        C950   1.406       .  A
C950       C2071   1.506       .  S
C951       C2070   1.506   1_554  S
C951        H955   1.111       .  S
C951        H956   1.109   1_554  S
C951        H957   1.110       .  S
C954        H958   1.109       .  S
C954        H959   1.110       .  S
C954        H960   1.111       .  S
C961        C962   1.416   1_545  A
C961       C2086   1.408       .  A
C961        H968   1.084       .  S
C962        C963   1.411   1_655  A
C963        C964   1.407   1_554  A
C963        C970   1.507       .  S
C964       C2085   1.415   1_565  A
C964        H969   1.084       .  S
C965        C966   1.412   1_455  A
C965       C2084   1.417   1_545  A
C966       C2081   1.407       .  A
C966        C967   1.508       .  S
C967        H971   1.111       .  S
C967        H972   1.110       .  S
C967        H973   1.110   1_655  S
C970        H974   1.110   1_455  S
C970        H975   1.111       .  S
C970        H976   1.111   1_554  S
C977        C978   1.402   1_565  A
C977        C982   1.403       .  A
C977        H984   1.085       .  S
C978        C979   1.411       .  A
C979        C980   1.403   1_455  A
C979        C986   1.507       .  S
C980        C981   1.403   1_545  A
C980        H985   1.085       .  S
C981        C982   1.416   1_655  A
C982        C983   1.509       .  S
C983        H987   1.111       .  S
C983        H988   1.110       .  S
C983        H989   1.110   1_455  S
C986        H990   1.110       .  S
C986        H991   1.108       .  S
C986        H992   1.111   1_455  S
C993        C994   1.403       .  A
C993        C998   1.404       .  A
C993       H1000   1.083       .  S
C994        C995   1.417       .  A
C995        C996   1.407       .  A
C995       C1002   1.507       .  S
C996        C997   1.403       .  A
C996       H1001   1.085       .  S
C997        C998   1.413       .  A
C998        C999   1.504       .  S
C999       H1003   1.110       .  S
C999       H1004   1.109       .  S
C999       H1005   1.106       .  S
C1002      H1006   1.109       .  S
C1002      H1007   1.110       .  S
C1002      H1008   1.111       .  S
C1009      C1010   1.408       .  A
C1009      C1014   1.404       .  A
C1009      H1016   1.084       .  S
C1010      C1011   1.404       .  A
C1011      C1012   1.402       .  A
C1011      C1018   1.506       .  S
C1012      C1013   1.413       .  A
C1012      H1017   1.084       .  S
C1013      C1014   1.409       .  A
C1014      C1015   1.507       .  S
C1015      H1019   1.111       .  S
C1015      H1020   1.109       .  S
C1015      H1021   1.111       .  S
C1018      H1022   1.110       .  S
C1018      H1023   1.110       .  S
C1018      H1024   1.111       .  S
C1025      C1026   1.407       .  A
C1025      C1030   1.404       .  A
C1025      H1032   1.085       .  S
C1026      C1027   1.402       .  A
C1027      C1028   1.406       .  A
C1027      C1034   1.505       .  S
C1028      C1029   1.417       .  A
C1028      H1033   1.080       .  S
C1029      C1030   1.415       .  A
C1030      C2151   1.507       .  S
C1031      C2150   1.507       .  S
C1031      H1035   1.111       .  S
C1031      H1036   1.110       .  S
C1031      H1037   1.111       .  S
C1034      H1038   1.110       .  S
C1034      H1039   1.110       .  S
C1034      H1040   1.111       .  S
C1041      C1042   1.414   1_545  A
C1041      C1046   1.405       .  A
C1041      H1048   1.084       .  S
C1042      C1043   1.411       .  A
C1043      C1044   1.408       .  A
C1043      C1050   1.507       .  S
C1044      C1045   1.414   1_565  A
C1044      H1049   1.084       .  S
C1045      C1046   1.409       .  A
C1046      C1047   1.507       .  S
C1047      H1051   1.111       .  S
C1047      H1052   1.110       .  S
C1047      H1053   1.111       .  S
C1050      H1054   1.111       .  S
C1050      H1055   1.110       .  S
C1050      H1056   1.111       .  S
C1057      C1062   1.403       .  A
C1057      C2178   1.410       .  A
C1057      H1064   1.085       .  S
C1058      C1059   1.406   1_565  A
C1058      C2177   1.415       .  A
C1059      C1060   1.401   1_554  A
C1059      C1066   1.504       .  S
C1060      C2181   1.414       .  A
C1060      H1065   1.085       .  S
C1061      C1062   1.410   1_545  A
C1061      C2180   1.411       .  A
C1062      C1063   1.502       .  S
C1063      H1067   1.111       .  S
C1063      H1068   1.110       .  S
C1063      H1069   1.102       .  S
C1066      H1070   1.105       .  S
C1066      H1071   1.110   1_545  S
C1066      H1072   1.108       .  S
C1073      C1074   1.401       .  A
C1073      C1078   1.405       .  A
C1073      H1080   1.084       .  S
C1074      C1075   1.431       .  A
C1075      C1076   1.404       .  A
C1075      C1082   1.509   1_545  S
C1076      C1077   1.392       .  A
C1076      H1081   1.084       .  S
C1077      C1078   1.421       .  A
C1078      C1079   1.508       .  S
C1079      H1083   1.111       .  S
C1079      H1084   1.109       .  S
C1079      H1085   1.109       .  S
C1082      H1086   1.110       .  S
C1082      H1087   1.107       .  S
C1082      H1088   1.111   1_565  S
C1089      C1090   1.403       .  A
C1089      C1094   1.402       .  A
C1089      H1096   1.084       .  S
C1090      C1091   1.431       .  A
C1091      C1092   1.407       .  A
C1091      C1098   1.509       .  S
C1092      C1093   1.394       .  A
C1092      H1097   1.084       .  S
C1093      C1094   1.415       .  A
C1094      C1095   1.506       .  S
C1095      H1099   1.111       .  S
C1095      H1100   1.109       .  S
C1095      H1101   1.109       .  S
C1098      H1102   1.109       .  S
C1098      H1103   1.109       .  S
C1098      H1104   1.111       .  S
C1105      C1106   1.405       .  A
C1105      C1110   1.406       .  A
C1105      H1112   1.085       .  S
C1106      C1107   1.402       .  A
C1107      C1108   1.404       .  A
C1107      C1114   1.506       .  S
C1108      C1109   1.417       .  A
C1108      H1113   1.082       .  S
C1109      C1110   1.418       .  A
C1110      C1111   1.507       .  S
C1111      H1115   1.111       .  S
C1111      H1116   1.110       .  S
C1111      H1117   1.108       .  S
C1114      H1118   1.111       .  S
C1114      H1120   1.111       .  S
C1114      H2239   1.110       .  S
H1119      C2234   1.110       .  S
O1121      C1136   1.250   1_565  A
O1121     Al1129   1.864       .  S
C1122      O1132   1.253       .  A
C1122      O1123   1.273       .  A
C1122      C2229   1.485       .  S
O1123     Al1125   1.952       .  S
O1124      C1126   1.243       .  A
O1124     Al1125   1.824       .  S
Al1125     O1133   1.844       .  S
Al1125     O1135   1.975   1_565  S
Al1125     O1134   1.755       .  S
C1126      O1139   1.278       .  A
C1126      C2178   1.476       .  S
O1127      C1137   1.254       .  A
O1127     Al1129   1.854       .  S
O1128      C1141   1.258       .  A
O1128     Al1138   1.869       .  S
Al1129     O1142   1.975       .  S
Al1129     O1139   2.009       .  S
Al1129     O1134   1.753       .  S
O1130      C1137   1.277       .  A
O1130     Al1138   1.987       .  S
O1131      C1140   1.281       .  A
O1131     Al1138   1.993       .  S
O1132     Al1138   1.850       .  S
O1133      C1140   1.253       .  A
O1134     Al1138   1.767       .  S
O1135      C1136   1.277       .  A
C1136      C2194   1.490       .  S
C1137      C2146   1.486       .  S
C1140      C2162   1.485       .  S
C1141      O1142   1.277       .  A
C1141      C2213   1.473       .  S
O1143      C1158   1.255   1_545  A
O1143     Al1151   1.874       .  S
C1144      O1154   1.253   1_655  A
C1144      O1145   1.268       .  A
C1144      C2114   1.483       .  S
O1145     Al1147   1.940   1_655  S
O1146      C1148   1.247       .  A
O1146     Al1147   1.834       .  S
Al1147     O1155   1.848       .  S
Al1147     O1157   1.966   1_545  S
Al1147     O1156   1.766       .  S
C1148      O1161   1.279       .  A
C1148      C2098   1.462       .  S
O1149      C1159   1.253       .  A
O1149     Al1151   1.851       .  S
O1150      C1163   1.255       .  A
O1150     Al1160   1.866       .  S
Al1151     O1164   1.966       .  S
Al1151     O1161   2.003       .  S
Al1151     O1156   1.762       .  S
O1152      C1159   1.276       .  A
O1152     Al1160   1.976       .  S
O1153      C1162   1.283       .  A
O1153     Al1160   1.990       .  S
O1154     Al1160   1.874       .  S
O1155      C1162   1.257       .  A
O1156     Al1160   1.761       .  S
O1157      C1158   1.270       .  A
C1158      C2133   1.486       .  S
C1159      C2050   1.473       .  S
C1162      C2085   1.495       .  S
C1163      O1164   1.274       .  A
C1163      C2066   1.487       .  S
O1165      C1180   1.253       .  A
O1165     Al1173   1.871       .  S
C1166      O1176   1.253       .  A
C1166      O1167   1.272       .  A
C1166      C1989   1.486       .  S
O1167     Al1169   1.953       .  S
O1168      C1170   1.244       .  A
O1168     Al1169   1.821       .  S
Al1169     O1177   1.846       .  S
Al1169     O1179   1.971       .  S
Al1169     O1178   1.752       .  S
C1170      O1183   1.277       .  A
C1170      C2018   1.478       .  S
O1171      C1181   1.253       .  A
O1171     Al1173   1.852       .  S
O1172      C1185   1.257       .  A
O1172     Al1182   1.858       .  S
Al1173     O1186   1.970       .  S
Al1173     O1183   1.997       .  S
Al1173     O1178   1.758       .  S
O1174      C1181   1.278       .  A
O1174     Al1182   1.990       .  S
O1175      C1184   1.283       .  A
O1175     Al1182   1.999       .  S
O1176     Al1182   1.858       .  S
O1177      C1184   1.254       .  A
O1178     Al1182   1.764       .  S
O1179      C1180   1.276       .  A
C1180      C2210   1.494       .  S
C1181      C2034   1.484       .  S
C1184      C2002   1.491       .  S
C1185      O1186   1.276       .  A
C1185      C2130   1.468       .  S
O1187      C1202   1.276       .  A
O1187     Al1195   1.974       .  S
C1188      O1198   1.271       .  A
C1188      O1189   1.251   1_455  A
C1188      C2037   1.484       .  S
O1189     Al1191   1.856       .  S
O1190      C1192   1.279       .  A
O1190     Al1191   1.989       .  S
Al1191     O1199   2.000       .  S
Al1191     O1201   1.863       .  S
Al1191     O1200   1.759       .  S
C1192      O1205   1.254       .  A
C1192      C1954   1.489       .  S
O1193      C1203   1.278       .  A
O1193     Al1195   2.005       .  S
O1194      C1207   1.275       .  A
O1194     Al1204   1.985   1_545  S
Al1195     O1208   1.867       .  S
Al1195     O1205   1.852       .  S
Al1195     O1200   1.757       .  S
O1196      C1203   1.245       .  A
O1196     Al1204   1.829       .  S
O1197      C1206   1.256       .  A
O1197     Al1204   1.846       .  S
O1198     Al1204   1.953   1_455  S
O1199      C1206   1.284       .  A
O1200     Al1204   1.762       .  S
O1201      C1202   1.254       .  A
C1202      C1941   1.477       .  S
C1203      C2101   1.462       .  S
C1206      C2082   1.503       .  S
C1207      O1208   1.254   1_545  A
C1207      C1970   1.483       .  S
O1209      C1224   1.275       .  A
O1209     Al1217   1.955       .  S
C1210      O1220   1.270       .  A
C1210      O1211   1.255       .  A
C1210      C1922   1.495       .  S
O1211     Al1213   1.877       .  S
O1212      C1214   1.271       .  A
O1212     Al1213   1.962       .  S
Al1213     O1221   1.978       .  S
Al1213     O1223   1.869       .  S
Al1213     O1222   1.768       .  S
C1214      O1227   1.256       .  A
C1214      C2117   1.470       .  S
O1215      C1225   1.275       .  A
O1215     Al1217   1.992       .  S
O1216      C1229   1.272       .  A
O1216     Al1226   1.970       .  S
Al1217     O1230   1.878       .  S
Al1217     O1227   1.872       .  S
Al1217     O1222   1.761       .  S
O1218      C1225   1.244       .  A
O1218     Al1226   1.830       .  S
O1219      C1228   1.255       .  A
O1219     Al1226   1.854       .  S
O1220     Al1226   1.942       .  S
O1221      C1228   1.279       .  A
O1222     Al1226   1.761       .  S
O1223      C1224   1.259       .  A
C1224      C1973   1.479       .  S
C1225      C1909   1.457       .  S
C1228      C1893   1.481       .  S
C1229      O1230   1.257       .  A
C1229      C1874   1.489       .  S
O1231      C1246   1.276       .  A
O1231     Al1239   1.967       .  S
C1232      O1242   1.276       .  A
C1232      O1233   1.252       .  A
C1232      C2053   1.495       .  S
O1233     Al1235   1.854       .  S
O1234      C1236   1.279       .  A
O1234     Al1235   1.999       .  S
Al1235     O1243   1.996       .  S
Al1235     O1245   1.857       .  S
Al1235     O1244   1.763       .  S
C1236      O1249   1.257       .  A
C1236      C1842   1.483       .  S
O1237      C1247   1.280       .  A
O1237     Al1239   2.012       .  S
O1238      C1251   1.276       .  A
O1238     Al1248   1.982       .  S
Al1239     O1252   1.857       .  S
Al1239     O1249   1.872       .  S
Al1239     O1244   1.757       .  S
O1240      C1247   1.242       .  A
O1240     Al1248   1.824       .  S
O1241      C1250   1.252       .  A
O1241     Al1248   1.847       .  S
O1242     Al1248   1.959       .  S
O1243      C1250   1.281       .  A
O1244     Al1248   1.755       .  S
O1245      C1246   1.256       .  A
C1246      C1858   1.470       .  S
C1247      C1826   1.473       .  S
C1250      C1810   1.495       .  S
C1251      O1252   1.251       .  A
C1251      C1794   1.481       .  S
O1253      C1268   1.275       .  A
O1253     Al1261   1.969       .  S
C1254      O1264   1.271       .  A
C1254      O1255   1.255   1_655  A
C1254      C1730   1.490       .  S
O1255     Al1257   1.868       .  S
O1256      C1258   1.279       .  A
O1256     Al1257   1.990       .  S
Al1257     O1265   1.997       .  S
Al1257     O1267   1.874       .  S
Al1257     O1266   1.761       .  S
C1258      O1271   1.255       .  A
C1258      C1986   1.486       .  S
O1259      C1269   1.278       .  A
O1259     Al1261   2.005       .  S
O1260      C1273   1.275       .  A
O1260     Al1270   1.980       .  S
Al1261     O1274   1.863       .  S
Al1261     O1271   1.851       .  S
Al1261     O1266   1.755       .  S
O1262      C1269   1.246       .  A
O1262     Al1270   1.835       .  S
O1263      C1272   1.254       .  A
O1263     Al1270   1.843       .  S
O1264     Al1270   1.951   1_655  S
O1265      C1272   1.283       .  A
O1266     Al1270   1.763       .  S
O1267      C1268   1.258       .  A
C1268      C1778   1.488       .  S
C1269      C1762   1.466       .  S
C1272      C1746   1.491       .  S
C1273      O1274   1.253       .  A
C1273      C1861   1.482       .  S
O1275      C1290   1.253       .  A
O1275     Al1283   1.872       .  S
C1276      O1286   1.253   1_455  A
C1276      O1277   1.272       .  A
C1276      C1845   1.492       .  S
O1277     Al1279   1.952   1_455  S
O1278      C1280   1.247       .  A
O1278     Al1279   1.848       .  S
Al1279     O1287   1.868       .  S
Al1279     O1289   1.975       .  S
Al1279     O1288   1.762       .  S
C1280      O1293   1.274       .  A
C1280      C1765   1.463       .  S
O1281      C1291   1.254       .  A
O1281     Al1283   1.853       .  S
O1282      C1295   1.259       .  A
O1282     Al1292   1.875       .  S
Al1283     O1296   1.956       .  S
Al1283     O1293   1.988       .  S
Al1283     O1288   1.761       .  S
O1284      C1291   1.277       .  A
O1284     Al1292   1.987       .  S
O1285      C1294   1.282       .  A
O1285     Al1292   1.993       .  S
O1286     Al1292   1.872       .  S
O1287      C1294   1.258       .  A
O1288     Al1292   1.767       .  S
O1289      C1290   1.276       .  A
C1290      C1701   1.496       .  S
C1291      C1925   1.480       .  S
C1294      C1749   1.502       .  S
C1295      O1296   1.273       .  A
C1295      C1714   1.476       .  S
O1297     Al1305   1.975       .  S
C1298      O1308   1.272       .  A
C1298      C2149   1.486       .  S
O1299     Al1301   1.869   1_554  S
O1300      C1302   1.276       .  A
Al1301     O1309   1.998       .  S
Al1301     O1311   1.859       .  S
C1302      O1315   1.255       .  A
C1302      C1685   1.485       .  S
O1303      C1313   1.279       .  A
O1303     Al1305   2.007       .  S
O1304      C1317   1.275       .  A
O1304     Al1314   1.982       .  S
Al1305     O1318   1.872       .  S
Al1305     O1315   1.855       .  S
Al1305     O1310   1.756       .  S
O1306      C1313   1.242       .  A
O1306     Al1314   1.820       .  S
O1307      C1316   1.254       .  A
O1308     Al1314   1.951       .  S
O1309      C1316   1.283       .  A
O1310     Al1314   1.752       .  S
O1311      C1312   1.256       .  A
C1312      C1666   1.474       .  S
C1313      C2021   1.481       .  S
C1316      C2005   1.490       .  S
C1317      O1318   1.256       .  A
C1317      C1781   1.488       .  S
O1319      C1334   1.255   1_554  A
O1319     Al1327   1.869   1_554  S
C1320      O1330   1.253       .  A
C1320      O1321   1.271       .  A
O1322      C1324   1.245       .  A
O1322     Al1323   1.833   1_556  S
Al1323     O1333   1.975   1_554  S
C1324      O1337   1.275       .  A
C1324      C1906   1.458       .  S
O1325      C1335   1.256       .  A
O1325     Al1327   1.866       .  S
O1326      C1339   1.255       .  A
O1326     Al1336   1.861       .  S
Al1327     O1337   1.989       .  S
O1328     Al1336   1.987       .  S
O1329      C1338   1.279       .  A
O1329     Al1336   1.981       .  S
O1330     Al1336   1.864       .  S
O1331      C1338   1.256       .  A
O1332     Al1336   1.765       .  S
O1333      C1334   1.273       .  A
C1334      C1717   1.489       .  S
C1335      C1618   1.477       .  S
C1338      C1890   1.482       .  S
C1339      O1340   1.271       .  A
C1339      C1637   1.471       .  S
O1341      C1356   1.273       .  A
O1341     Al1349   1.955       .  S
C1342      O1352   1.273       .  A
C1342      O1343   1.253       .  A
C1342      C1621   1.497       .  S
O1343     Al1345   1.867       .  S
O1344      C1346   1.277       .  A
O1344     Al1345   1.981       .  S
Al1345     O1353   1.990       .  S
Al1345     O1355   1.874       .  S
Al1345     O1354   1.764       .  S
C1346      O1359   1.255       .  A
C1346      C1602   1.475       .  S
O1347      C1357   1.278       .  A
O1347     Al1349   2.002       .  S
O1348      C1361   1.274       .  A
O1348     Al1358   1.977       .  S
Al1349     O1362   1.868       .  S
Al1349     O1359   1.864       .  S
Al1349     O1354   1.758       .  S
O1350      C1357   1.247       .  A
O1350     Al1358   1.829       .  S
O1351      C1360   1.255       .  A
O1351     Al1358   1.852       .  S
O1352     Al1358   1.954       .  S
O1353      C1360   1.281       .  A
O1354     Al1358   1.760       .  S
O1355      C1356   1.259       .  A
C1356      C1797   1.485       .  S
C1357      C1586   1.476       .  S
C1360      C1573   1.489       .  S
C1361      O1362   1.253       .  A
C1361      C1669   1.488       .  S
O1363      C1378   1.254   1_554  A
O1363     Al1371   1.873   1_554  S
C1364      O1374   1.248       .  A
C1364      O1365   1.273       .  A
O1366      C1368   1.246       .  A
O1366     Al1367   1.819   1_556  S
Al1367     O1377   1.981   1_554  S
C1368      O1381   1.280       .  A
C1368      C1829   1.472       .  S
O1369      C1379   1.253       .  A
O1369     Al1371   1.852       .  S
O1370      C1383   1.254       .  A
O1370     Al1380   1.862       .  S
Al1371     O1381   2.012       .  S
O1372     Al1380   1.982       .  S
O1373      C1382   1.281       .  A
O1373     Al1380   1.991       .  S
O1374     Al1380   1.847       .  S
O1375      C1382   1.253       .  A
O1376     Al1380   1.759       .  S
O1377      C1378   1.275       .  A
C1378      C2069   1.488       .  S
C1379      C1554   1.472       .  S
C1382      C1813   1.494       .  S
C1383      O1384   1.274       .  A
C1383      C2197   1.474       .  S
O1385      C1400   1.275       .  A
O1385     Al1393   1.962       .  S
C1386      O1396   1.271       .  A
C1386      O1387   1.253       .  A
C1386      C1557   1.495       .  S
O1387     Al1389   1.868       .  S
O1388      C1390   1.276       .  A
O1388     Al1389   1.984       .  S
Al1389     O1397   1.990       .  S
Al1389     O1399   1.867       .  S
Al1389     O1398   1.767       .  S
C1390      O1403   1.253       .  A
C1390      C1650   1.477       .  S
O1391      C1401   1.277       .  A
O1391     Al1393   1.994       .  S
O1392      C1405   1.271       .  A
O1392     Al1402   1.963   1_565  S
Al1393     O1406   1.873       .  S
Al1393     O1403   1.861       .  S
Al1393     O1398   1.756       .  S
O1394      C1401   1.247       .  A
O1394     Al1402   1.832       .  S
O1395      C1404   1.254       .  A
O1395     Al1402   1.849       .  S
O1396     Al1402   1.944       .  S
O1397      C1404   1.281       .  A
O1398     Al1402   1.760       .  S
O1399      C1400   1.258       .  A
C1400      C1877   1.480       .  S
C1401      C2181   1.479       .  S
C1404      C2165   1.483       .  S
C1405      O1406   1.256   1_565  A
C1405      C1538   1.493       .  S
O1407     Al1415   1.949       .  S
C1408      O1418   1.275       .  A
C1408      C1490   1.490       .  S
O1409     Al1411   1.866   1_554  S
O1410      C1412   1.276       .  A
Al1411     O1419   1.984       .  S
Al1411     O1421   1.871       .  S
C1412      O1425   1.252       .  A
C1412      C2226   1.478       .  S
O1413      C1423   1.272       .  A
O1413     Al1415   1.974       .  S
O1414      C1427   1.277       .  A
O1414     Al1424   1.981       .  S
Al1415     O1428   1.867       .  S
Al1415     O1425   1.847       .  S
Al1415     O1420   1.758       .  S
O1416      C1423   1.246       .  A
O1416     Al1424   1.823       .  S
O1417      C1426   1.254       .  A
O1418     Al1424   1.961       .  S
O1419      C1426   1.279       .  A
O1420     Al1424   1.758       .  S
O1421      C1422   1.257       .  A
C1422      C1541   1.466       .  S
C1423      C1522   1.460       .  S
C1426      C1506   1.490       .  S
C1427      O1428   1.251       .  A
C1427      C1938   1.494       .  S
O1429      C1444   1.253       .  A
O1429     Al1437   1.869       .  S
C1430      O1440   1.252       .  A
C1430      O1431   1.273       .  A
C1430      C1957   1.490       .  S
O1431     Al1433   1.962       .  S
O1432      C1434   1.244       .  A
O1432     Al1433   1.812       .  S
Al1433     O1441   1.843       .  S
Al1433     O1443   1.976       .  S
Al1433     O1442   1.761       .  S
C1434      O1447   1.278       .  A
C1434      C1525   1.464       .  S
O1435      C1445   1.255       .  A
O1435     Al1437   1.858       .  S
O1436      C1449   1.257       .  A
O1436     Al1446   1.869       .  S
Al1437     O1450   1.969       .  S
Al1437     O1447   2.001       .  S
Al1437     O1442   1.760       .  S
O1438      C1445   1.277       .  A
O1438     Al1446   1.980       .  S
O1439      C1448   1.282       .  A
O1439     Al1446   1.997       .  S
O1440     Al1446   1.853       .  S
O1441      C1448   1.253       .  A
O1442     Al1446   1.761       .  S
O1443      C1444   1.274       .  A
C1444      C1477   1.487       .  S
C1445      C1733   1.488       .  S
C1448      C1509   1.490       .  S
C1449      O1450   1.275       .  A
C1449      C1698   1.474       .  S
O1451      C1466   1.252       .  A
O1451     Al1459   1.864       .  S
C1452      O1462   1.255       .  A
C1452      O1453   1.272       .  A
C1452      C1682   1.481       .  S
O1453     Al1455   1.948       .  S
O1454      C1456   1.245       .  A
O1454     Al1455   1.815       .  S
Al1455     O1463   1.849       .  S
Al1455     O1465   1.961       .  S
Al1455     O1464   1.760       .  S
C1456      O1469   1.280       .  A
C1456      C1589   1.479       .  S
O1457      C1467   1.253       .  A
O1457     Al1459   1.867       .  S
O1458      C1471   1.256       .  A
O1458     Al1468   1.857       .  S
Al1459     O1472   1.972       .  S
Al1459     O1469   2.009       .  S
Al1459     O1464   1.754       .  S
O1460      C1467   1.276       .  A
O1460     Al1468   1.984       .  S
O1461      C1470   1.282       .  A
O1461     Al1468   1.995       .  S
O1462     Al1468   1.865       .  S
O1463      C1470   1.254       .  A
O1464     Al1468   1.764       .  S
O1465      C1466   1.270       .  A
C1466      C1634   1.479       .  S
C1467      C1493   1.477       .  S
C1470      C1570   1.491       .  S
C1471      O1472   1.278       .  A
C1471      C1474   1.478       .  S
C1473      C1474   1.411       .  A
C1473      C1478   1.405       .  A
C1473      H1480   1.084       .  S
C1474      C1475   1.404       .  A
C1475      C1476   1.402       .  A
C1475      C1482   1.507       .  S
C1476      C1477   1.415       .  A
C1476      H1481   1.083       .  S
C1477      C1478   1.410       .  A
C1478      C1479   1.507       .  S
C1479      H1483   1.111       .  S
C1479      H1484   1.108       .  S
C1479      H1485   1.110       .  S
C1482      H1486   1.110       .  S
C1482      H1487   1.111       .  S
C1482      H1488   1.111       .  S
C1489      C1490   1.403       .  A
C1489      C1494   1.404       .  A
C1489      H1496   1.084       .  S
C1490      C1491   1.425       .  A
C1491      C1492   1.408       .  A
C1491      C1498   1.509       .  S
C1492      C1493   1.399       .  A
C1492      H1497   1.084       .  S
C1493      C1494   1.415       .  A
C1494      C1495   1.504       .  S
C1495      H1499   1.110       .  S
C1495      H1500   1.109       .  S
C1495      H1501   1.107       .  S
C1498      H1502   1.110       .  S
C1498      H1503   1.106       .  S
C1498      H1504   1.111       .  S
C1505      C1506   1.413       .  A
C1505      C1510   1.409       .  A
C1505      H1512   1.084       .  S
C1506      C1507   1.410       .  A
C1507      C1508   1.405       .  A
C1507      C1514   1.507       .  S
C1508      C1509   1.413       .  A
C1508      H1513   1.084       .  S
C1509      C1510   1.410       .  A
C1510      C1511   1.506       .  S
C1511      H1515   1.111       .  S
C1511      H1516   1.111       .  S
C1511      H1517   1.110       .  S
C1514      H1518   1.110       .  S
C1514      H1519   1.111       .  S
C1514      H1520   1.111       .  S
C1521      C1522   1.407       .  A
C1521      C1526   1.399       .  A
C1521      H1528   1.086       .  S
C1522      C1523   1.410       .  A
C1523      C1524   1.398       .  A
C1523      C1530   1.506       .  S
C1524      C1525   1.407       .  A
C1524      H1529   1.086       .  S
C1525      C1526   1.408       .  A
C1526      C1527   1.499       .  S
C1527      H1531   1.110       .  S
C1527      H1532   1.102       .  S
C1527      H1533   1.110       .  S
C1530      H1534   1.104       .  S
C1530      H1535   1.109       .  S
C1530      H1536   1.111       .  S
C1537      C1538   1.416       .  A
C1537      C1542   1.404       .  A
C1537      H1544   1.084       .  S
C1538      C1539   1.420       .  A
C1539      C1540   1.403       .  A
C1539      C1546   1.509       .  S
C1540      C1541   1.401       .  A
C1540      H1545   1.085       .  S
C1541      C1542   1.401       .  A
C1543      H1547   1.111       .  S
C1543      H1548   1.109       .  S
C1543      H1549   1.110       .  S
C1546      H1550   1.110       .  S
C1546      H1551   1.109       .  S
C1546      H1552   1.111       .  S
C1553      C1554   1.393       .  A
C1553      C1558   1.406       .  A
C1553      H1560   1.085       .  S
C1554      C1555   1.416       .  A
C1555      C1556   1.401       .  A
C1555      C1562   1.509       .  S
C1556      C1557   1.404       .  A
C1556      H1561   1.084       .  S
C1557      C1558   1.430       .  A
C1558      C1559   1.509       .  S
C1559      H1563   1.111       .  S
C1559      H1564   1.110       .  S
C1559      H1565   1.110       .  S
C1562      H1566   1.109       .  S
C1562      H1567   1.109       .  S
C1562      H1568   1.111       .  S
C1569      C1570   1.414       .  A
C1569      C1574   1.407       .  A
C1569      H1576   1.084       .  S
C1570      C1571   1.411       .  A
C1571      C1572   1.407       .  A
C1571      C1578   1.506       .  S
C1572      C1573   1.412       .  A
C1572      H1577   1.084       .  S
C1573      C1574   1.410       .  A
C1574      C1575   1.507       .  S
C1575      H1579   1.111       .  S
C1575      H1580   1.110       .  S
C1575      H1581   1.111       .  S
C1578      H1582   1.110       .  S
C1578      H1583   1.110       .  S
C1578      H1584   1.111       .  S
C1585      C1590   1.405       .  A
C1585      H1592   1.086       .  S
C1586      C1587   1.407   1_556  A
C1587      C1594   1.503   1_554  S
C1588      C1589   1.414       .  A
C1588      H1593   1.085       .  S
C1589      C1590   1.414       .  A
C1590      C1591   1.508       .  S
C1591      H1595   1.111       .  S
C1591      H1596   1.110       .  S
C1591      H1597   1.103       .  S
C1594      H1598   1.110   1_556  S
C1594      H1599   1.101       .  S
C1594      H1600   1.111   1_556  S
C1601      C1602   1.396       .  A
C1601      C1606   1.407       .  A
C1601      H1608   1.084       .  S
C1602      C1603   1.414       .  A
C1603      C1604   1.405       .  A
C1603      C1610   1.504       .  S
C1604      C1605   1.403       .  A
C1605      C1606   1.427       .  A
C1606      C1607   1.510   1_556  S
C1607      H1611   1.111       .  S
C1607      H1612   1.109   1_554  S
C1607      H1613   1.111       .  S
C1610      H1614   1.109       .  S
C1610      H1615   1.109       .  S
C1610      H1616   1.110       .  S
C1617      C1618   1.396       .  A
C1617      C1622   1.409       .  A
C1617      H1624   1.084       .  S
C1618      C1619   1.415       .  A
C1619      C1620   1.404       .  A
C1619      C1626   1.507       .  S
C1620      C1621   1.404       .  A
C1620      H1625   1.084       .  S
C1621      C1622   1.430       .  A
C1622      C1623   1.509       .  S
C1623      H1627   1.111       .  S
C1623      H1628   1.110       .  S
C1623      H1629   1.110       .  S
C1626      H1630   1.109       .  S
C1626      H1631   1.108       .  S
C1626      H1632   1.111       .  S
C1633      C1634   1.413       .  A
C1633      C1638   1.399       .  A
C1633      H1640   1.084       .  S
C1634      C1635   1.409       .  A
C1635      C1636   1.402       .  A
C1635      C1642   1.507       .  S
C1636      C1637   1.409       .  A
C1636      H1641   1.084       .  S
C1637      C1638   1.404       .  A
C1638      C1639   1.508       .  S
C1639      H1643   1.111       .  S
C1639      H1645   1.111       .  S
C1642      H1646   1.109       .  S
C1642      H1647   1.110       .  S
C1642      H1648   1.111       .  S
C1649      C1650   1.403       .  A
C1649      C1654   1.406       .  A
C1649      H1656   1.084       .  S
C1650      C1651   1.413       .  A
C1651      C1652   1.406       .  A
C1651      C1658   1.505       .  S
C1652      C1653   1.403       .  A
C1652      H1657   1.083       .  S
C1653      C1654   1.416       .  A
C1655      H1659   1.111       .  S
C1655      H1660   1.109       .  S
C1655      H1661   1.110       .  S
C1658      H1662   1.110       .  S
C1658      H1663   1.107       .  S
C1658      H1664   1.109       .  S
C1665      C1666   1.408       .  A
C1665      C1670   1.405       .  A
C1665      H1672   1.085       .  S
C1666      C1667   1.402       .  A
C1667      C1668   1.402       .  A
C1668      C1669   1.416       .  A
C1668      H1673   1.083       .  S
C1669      C1670   1.412       .  A
C1670      C1671   1.507       .  S
C1671      H1675   1.111       .  S
C1671      H1676   1.110       .  S
C1671      H1677   1.109       .  S
C1674      H1678   1.110       .  S
C1674      H1679   1.110       .  S
C1674      H1680   1.111       .  S
C1681      C1682   1.413       .  A
C1681      C1686   1.406       .  A
C1681      H1688   1.084       .  S
C1682      C1683   1.406       .  A
C1683      C1684   1.401       .  A
C1683      C1690   1.507       .  S
C1684      C1685   1.413       .  A
C1684      H1689   1.084       .  S
C1685      C1686   1.408       .  A
C1686      C1687   1.506       .  S
C1687      H1691   1.111       .  S
C1687      H1692   1.110       .  S
C1687      H1693   1.110       .  S
C1690      H1694   1.110       .  S
C1690      H1695   1.110       .  S
C1690      H1696   1.111       .  S
C1697      C1698   1.394       .  A
C1697      C1702   1.408       .  A
C1697      H1704   1.084       .  S
C1698      C1699   1.415       .  A
C1699      C1700   1.401       .  A
C1699      C1706   1.506       .  S
C1700      C1701   1.402       .  A
C1700      H1705   1.084       .  S
C1701      C1702   1.431       .  A
C1702      C1703   1.509       .  S
C1703      H1707   1.111       .  S
C1703      H1708   1.110       .  S
C1703      H1709   1.109       .  S
C1706      H1710   1.108       .  S
C1706      H1711   1.108       .  S
C1706      H1712   1.110       .  S
C1713      C1714   1.407       .  A
C1713      C1718   1.406       .  A
C1713      H1720   1.084       .  S
C1714      C1715   1.405       .  A
C1715      C1716   1.402       .  A
C1715      C1722   1.507       .  S
C1716      C1717   1.414       .  A
C1717      C1718   1.412       .  A
C1718      C1719   1.506       .  S
C1719      H1723   1.111       .  S
C1719      H1724   1.109       .  S
C1719      H1725   1.111   1_556  S
C1722      H1726   1.109       .  S
C1722      H1727   1.111       .  S
C1729      C1730   1.413       .  A
C1729      C1734   1.406       .  A
C1729      H1736   1.083       .  S
C1730      C1731   1.410       .  A
C1731      C1732   1.405       .  A
C1731      C1738   1.507       .  S
C1732      C1733   1.413       .  A
C1732      H1737   1.084       .  S
C1733      C1734   1.408       .  A
C1734      C1735   1.506       .  S
C1735      H1739   1.111       .  S
C1735      H1740   1.109       .  S
C1735      H1741   1.109       .  S
C1738      H1742   1.110       .  S
C1738      H1743   1.110       .  S
C1738      H1744   1.111       .  S
C1745      C1746   1.416   1_655  A
C1745      H1752   1.084       .  S
C1746      C1747   1.408       .  A
C1747      C1748   1.407       .  A
C1747      C1754   1.506       .  S
C1749      C1750   1.412   1_656  A
C1750      C1751   1.507       .  S
C1751      H1755   1.111       .  S
C1751      H1756   1.111   1_554  S
C1751      H1757   1.110       .  S
C1754      H1758   1.111       .  S
C1754      H1759   1.110       .  S
C1754      H1760   1.111       .  S
C1761      C1762   1.404       .  A
C1761      C1766   1.404   1_455  A
C1761      H1768   1.085       .  S
C1762      C1763   1.415   1_455  A
C1763      C1764   1.402       .  A
C1763      C1770   1.508       .  S
C1764      C1765   1.400       .  A
C1764      H1769   1.084       .  S
C1765      C1766   1.413       .  A
C1766      C1767   1.506       .  S
C1767      H1771   1.110       .  S
C1767      H1772   1.110       .  S
C1767      H1773   1.105   1_655  S
C1770      H1774   1.109       .  S
C1770      H1775   1.110   1_655  S
C1770      H1776   1.108       .  S
C1777      C1778   1.412       .  A
C1777      C1782   1.408       .  A
C1777      H1784   1.084       .  S
C1778      C1779   1.410       .  A
C1779      C1780   1.405       .  A
C1779      C1786   1.507       .  S
C1780      C1781   1.412       .  A
C1780      H1785   1.084       .  S
C1781      C1782   1.408       .  A
C1782      C1783   1.506       .  S
C1783      H1787   1.111       .  S
C1783      H1788   1.111       .  S
C1783      H1789   1.109       .  S
C1786      H1790   1.110       .  S
C1786      H1791   1.110       .  S
C1786      H1792   1.111       .  S
C1793      C1794   1.410       .  A
C1793      C1798   1.400       .  A
C1793      H1800   1.084       .  S
C1794      C1795   1.405       .  A
C1795      C1796   1.407       .  A
C1795      C1802   1.505       .  S
C1796      C1797   1.415       .  A
C1796      H1801   1.084       .  S
C1797      C1798   1.411       .  A
C1798      C1799   1.509       .  S
C1799      H1803   1.111       .  S
C1799      H1804   1.110       .  S
C1799      H1805   1.108       .  S
C1802      H1806   1.111       .  S
C1802      H1807   1.109       .  S
C1802      H1808   1.111       .  S
C1809      C1810   1.416       .  A
C1809      C1814   1.407       .  A
C1809      H1816   1.084       .  S
C1810      C1811   1.410       .  A
C1811      C1812   1.407       .  A
C1811      C1818   1.507       .  S
C1812      C1813   1.415       .  A
C1812      H1817   1.084       .  S
C1813      C1814   1.409       .  A
C1814      C1815   1.506       .  S
C1815      H1819   1.111       .  S
C1815      H1820   1.110       .  S
C1815      H1821   1.110       .  S
C1818      H1822   1.110       .  S
C1818      H1823   1.111       .  S
C1818      H1824   1.111       .  S
C1825      C1826   1.410       .  A
C1825      C1830   1.405       .  A
C1825      H1832   1.085       .  S
C1826      C1827   1.410       .  A
C1827      C1828   1.400       .  A
C1827      C1834   1.502       .  S
C1828      C1829   1.407       .  A
C1828      H1833   1.085       .  S
C1829      C1830   1.410       .  A
C1830      C1831   1.501       .  S
C1831      H1835   1.111       .  S
C1831      H1836   1.103       .  S
C1831      H1837   1.110       .  S
C1834      H1838   1.110       .  S
C1834      H1839   1.103       .  S
C1834      H1840   1.110       .  S
C1841      C1842   1.401       .  A
C1841      C1846   1.409       .  A
C1841      H1848   1.084       .  S
C1842      C1843   1.416       .  A
C1843      C1844   1.407       .  A
C1843      C1850   1.504       .  S
C1844      C1845   1.403       .  A
C1844      H1849   1.084       .  S
C1845      C1846   1.422       .  A
C1846      C1847   1.508       .  S
C1847      H1851   1.111       .  S
C1847      H1852   1.108       .  S
C1847      H1853   1.110       .  S
C1850      H1854   1.109       .  S
C1850      H1855   1.107       .  S
C1850      H1856   1.111       .  S
C1857      C1858   1.409       .  A
C1857      C1862   1.402       .  A
C1857      H1864   1.084       .  S
C1858      C1859   1.402       .  A
C1859      C1860   1.400       .  A
C1859      C1866   1.507       .  S
C1860      C1861   1.415       .  A
C1860      H1865   1.083       .  S
C1861      C1862   1.408       .  A
C1862      C1863   1.506       .  S
C1863      H1867   1.111       .  S
C1863      H1868   1.110       .  S
C1863      H1869   1.109       .  S
C1866      H1870   1.110       .  S
C1866      H1871   1.110       .  S
C1866      H1872   1.111       .  S
C1873      C1874   1.413       .  A
C1873      C1878   1.404       .  A
C1873      H1880   1.084       .  S
C1874      C1875   1.412       .  A
C1875      C1876   1.406       .  A
C1875      C1882   1.506       .  S
C1876      C1877   1.409       .  A
C1876      H1881   1.084       .  S
C1877      C1878   1.405       .  A
C1878      C1879   1.507       .  S
C1879      H1883   1.111       .  S
C1879      H1884   1.111       .  S
C1879      H1885   1.109       .  S
C1882      H1886   1.110       .  S
C1882      H1887   1.109       .  S
C1882      H1888   1.111       .  S
C1889      C1890   1.399       .  A
C1889      C1894   1.406       .  A
C1889      H1896   1.084       .  S
C1890      C1891   1.421       .  A
C1891      C1892   1.405       .  A
C1891      C1898   1.510       .  S
C1892      C1893   1.399       .  A
C1892      H1897   1.084       .  S
C1893      C1894   1.421       .  A
C1894      C1895   1.509       .  S
C1895      H1899   1.111       .  S
C1895      H1900   1.108       .  S
C1895      H1901   1.111       .  S
C1898      H1902   1.111       .  S
C1898      H1903   1.109       .  S
C1898      H1904   1.111       .  S
C1905      C1906   1.403       .  A
C1905      C1910   1.402       .  A
C1905      H1912   1.085       .  S
C1906      C1907   1.410       .  A
C1907      C1908   1.402       .  A
C1907      C1914   1.508       .  S
C1908      C1909   1.404       .  A
C1908      H1913   1.085       .  S
C1909      C1910   1.412       .  A
C1910      C1911   1.508       .  S
C1911      H1915   1.111       .  S
C1911      H1916   1.110       .  S
C1911      H1917   1.110       .  S
C1914      H1918   1.110       .  S
C1914      H1919   1.109       .  S
C1914      H1920   1.111       .  S
C1921      C1922   1.418       .  A
C1921      C1926   1.409       .  A
C1921      H1928   1.083       .  S
C1922      C1923   1.414       .  A
C1923      C1924   1.403       .  A
C1923      C1930   1.507       .  S
C1924      C1925   1.407       .  A
C1924      H1929   1.084       .  S
C1925      C1926   1.404       .  A
C1926      C1927   1.505       .  S
C1927      H1931   1.111       .  S
C1927      H1932   1.110       .  S
C1927      H1933   1.110       .  S
C1930      H1934   1.110       .  S
C1930      H1935   1.110       .  S
C1930      H1936   1.111       .  S
C1937      C1938   1.400       .  A
C1937      C1942   1.403       .  A
C1937      H1944   1.084       .  S
C1938      C1939   1.431       .  A
C1939      C1940   1.404       .  A
C1939      C1946   1.508       .  S
C1940      C1941   1.392       .  A
C1940      H1945   1.085       .  S
C1941      C1942   1.420       .  A
C1942      C1943   1.506       .  S
C1943      H1947   1.111       .  S
C1943      H1948   1.107       .  S
C1943      H1949   1.109       .  S
C1946      H1950   1.108       .  S
C1946      H1952   1.111       .  S
C1953      C1954   1.416       .  A
C1953      C1958   1.407       .  A
C1953      H1960   1.084       .  S
C1954      C1955   1.407       .  A
C1955      C1956   1.405       .  A
C1955      C1962   1.506       .  S
C1956      C1957   1.414       .  A
C1956      H1961   1.083       .  S
C1957      C1958   1.408       .  A
C1958      C1959   1.506       .  S
C1959      H1963   1.111       .  S
C1959      H1964   1.110       .  S
C1959      H1965   1.110       .  S
C1962      H1966   1.110       .  S
C1962      H1967   1.109       .  S
C1962      H1968   1.111       .  S
C1969      C1970   1.411       .  A
C1969      C1974   1.400       .  A
C1969      H1976   1.083       .  S
C1970      C1971   1.407       .  A
C1971      C1972   1.407       .  A
C1971      C1978   1.505       .  S
C1972      C1973   1.412       .  A
C1972      H1977   1.084       .  S
C1973      C1974   1.407       .  A
C1974      C1975   1.508       .  S
C1975      H1979   1.111       .  S
C1975      H1980   1.110       .  S
C1975      H1981   1.109       .  S
C1978      H1982   1.111       .  S
C1978      H1983   1.109       .  S
C1978      H1984   1.111       .  S
C1985      C1986   1.414       .  A
C1985      C1990   1.404       .  A
C1985      H1992   1.084       .  S
C1986      C1987   1.406       .  A
C1987      C1988   1.406       .  A
C1987      C1994   1.506       .  S
C1988      C1989   1.414       .  A
C1988      H1993   1.084       .  S
C1989      C1990   1.407       .  A
C1990      C1991   1.507       .  S
C1991      H1995   1.111       .  S
C1991      H1996   1.111       .  S
C1991      H1997   1.110       .  S
C1994      H1998   1.110       .  S
C1994      H1999   1.110       .  S
C1994      H2000   1.111       .  S
C2001      C2002   1.414       .  A
C2001      C2006   1.407       .  A
C2001      H2008   1.084       .  S
C2002      C2003   1.410       .  A
C2003      C2004   1.408       .  A
C2003      C2010   1.506       .  S
C2004      C2005   1.414       .  A
C2004      H2009   1.084       .  S
C2005      C2006   1.409       .  A
C2006      C2007   1.506       .  S
C2007      H2011   1.111       .  S
C2007      H2012   1.110       .  S
C2007      H2013   1.111       .  S
C2010      H2014   1.111       .  S
C2010      H2015   1.110       .  S
C2010      H2016   1.111       .  S
C2017      C2018   1.415       .  A
C2017      C2022   1.399       .  A
C2017      H2024   1.085       .  S
C2018      C2019   1.405       .  A
C2019      C2020   1.401       .  A
C2019      C2026   1.507       .  S
C2020      C2021   1.418       .  A
C2020      H2025   1.085       .  S
C2021      C2022   1.406       .  A
C2022      C2023   1.504       .  S
C2023      H2027   1.111       .  S
C2023      H2028   1.110       .  S
C2023      H2029   1.104       .  S
C2026      H2030   1.105       .  S
C2026      H2031   1.110       .  S
C2026      H2032   1.111       .  S
C2033      C2034   1.413       .  A
C2033      C2038   1.402       .  A
C2033      H2040   1.084       .  S
C2034      C2035   1.406       .  A
C2035      C2036   1.406       .  A
C2035      C2042   1.506       .  S
C2036      C2037   1.414       .  A
C2036      H2041   1.084       .  S
C2037      C2038   1.406       .  A
C2038      C2039   1.507       .  S
C2039      H2043   1.111       .  S
C2039      H2044   1.109       .  S
C2039      H2045   1.111       .  S
C2042      H2046   1.110       .  S
C2042      H2047   1.110       .  S
C2042      H2048   1.111       .  S
C2049      C2050   1.393       .  A
C2049      C2054   1.406       .  A
C2049      H2056   1.085       .  S
C2050      C2051   1.416       .  A
C2051      C2052   1.403       .  A
C2051      C2058   1.509       .  S
C2052      C2053   1.404       .  A
C2052      H2057   1.084       .  S
C2053      C2054   1.432       .  A
C2054      C2055   1.510       .  S
C2055      H2059   1.111       .  S
C2055      H2060   1.110       .  S
C2055      H2061   1.109       .  S
C2058      H2062   1.109       .  S
C2058      H2063   1.110       .  S
C2058      H2064   1.111       .  S
C2065      C2066   1.413       .  A
C2065      C2070   1.407       .  A
C2065      H2072   1.084       .  S
C2066      C2067   1.408       .  A
C2067      C2068   1.405       .  A
C2067      C2074   1.507       .  S
C2068      C2069   1.413       .  A
C2068      H2073   1.083       .  S
C2069      C2070   1.408       .  A
C2071      H2075   1.111       .  S
C2071      H2076   1.109       .  S
C2071      H2077   1.110       .  S
C2074      H2078   1.110       .  S
C2074      H2079   1.110       .  S
C2074      H2080   1.111       .  S
C2081      C2082   1.417   1_545  A
C2081      H2088   1.083       .  S
C2082      C2083   1.412   1_655  A
C2083      C2084   1.410       .  A
C2083      C2090   1.507       .  S
C2084      H2089   1.083       .  S
C2085      C2086   1.411   1_456  A
C2086      C2087   1.507       .  S
C2087      H2091   1.111       .  S
C2087      H2092   1.110   1_554  S
C2087      H2093   1.110   1_655  S
C2090      H2094   1.110   1_455  S
C2090      H2095   1.110       .  S
C2090      H2096   1.111       .  S
C2097      C2098   1.402   1_565  A
C2097      C2102   1.404   1_455  A
C2097      H2104   1.084       .  S
C2098      C2099   1.413       .  A
C2099      C2100   1.404   1_455  A
C2099      C2106   1.508       .  S
C2100      C2101   1.403   1_545  A
C2100      H2105   1.085       .  S
C2101      C2102   1.415       .  A
C2102      C2103   1.508       .  S
C2103      H2107   1.111   1_655  S
C2103      H2108   1.109       .  S
C2103      H2109   1.110       .  S
C2106      H2110   1.110       .  S
C2106      H2111   1.109       .  S
C2106      H2112   1.111   1_455  S
C2113      C2114   1.404       .  A
C2113      C2118   1.403       .  A
C2113      H2120   1.084       .  S
C2114      C2115   1.419       .  A
C2115      C2116   1.405       .  A
C2115      C2122   1.507       .  S
C2116      C2117   1.399       .  A
C2116      H2121   1.085       .  S
C2117      C2118   1.412       .  A
C2118      C2119   1.507       .  S
C2119      H2123   1.110       .  S
C2119      H2124   1.110       .  S
C2119      H2125   1.108       .  S
C2122      H2126   1.110       .  S
C2122      H2127   1.110       .  S
C2122      H2128   1.111       .  S
C2129      C2130   1.406       .  A
C2129      C2134   1.403       .  A
C2129      H2136   1.085       .  S
C2130      C2131   1.400       .  A
C2131      C2132   1.401       .  A
C2131      C2138   1.506       .  S
C2132      C2133   1.415       .  A
C2132      H2137   1.083       .  S
C2133      C2134   1.413       .  A
C2134      C2135   1.508       .  S
C2135      H2139   1.111       .  S
C2135      H2140   1.109       .  S
C2135      H2141   1.110       .  S
C2138      H2142   1.110       .  S
C2138      H2143   1.110       .  S
C2138      H2144   1.111       .  S
C2145      C2146   1.412       .  A
C2145      C2150   1.401       .  A
C2145      H2152   1.084       .  S
C2146      C2147   1.407       .  A
C2147      C2148   1.408       .  A
C2147      C2154   1.506       .  S
C2148      C2149   1.415       .  A
C2148      H2153   1.084       .  S
C2149      C2150   1.408       .  A
C2151      H2155   1.111       .  S
C2151      H2156   1.110       .  S
C2151      H2157   1.111       .  S
C2154      H2158   1.110       .  S
C2154      H2159   1.110       .  S
C2154      H2160   1.111       .  S
C2161      C2162   1.411   1_545  A
C2161      C2166   1.405       .  A
C2161      H2168   1.084       .  S
C2162      C2163   1.410       .  A
C2163      C2164   1.407       .  A
C2163      C2170   1.506       .  S
C2164      C2165   1.411   1_565  A
C2164      H2169   1.084       .  S
C2165      C2166   1.408       .  A
C2166      C2167   1.506       .  S
C2167      H2171   1.111       .  S
C2167      H2172   1.110       .  S
C2167      H2173   1.111       .  S
C2170      H2174   1.111       .  S
C2170      H2175   1.110       .  S
C2170      H2176   1.111       .  S
C2177      C2182   1.400       .  A
C2177      H2184   1.084       .  S
C2178      C2179   1.408   1_565  A
C2179      C2180   1.403       .  A
C2179      C2186   1.501       .  S
C2180      H2185   1.085       .  S
C2181      C2182   1.406   1_546  A
C2182      C2183   1.507       .  S
C2183      H2187   1.111       .  S
C2183      H2188   1.110   1_565  S
C2183      H2189   1.103   1_554  S
C2186      H2190   1.101       .  S
C2186      H2191   1.110       .  S
C2186      H2192   1.110       .  S
C2193      C2194   1.400       .  A
C2193      C2198   1.400       .  A
C2193      H2200   1.084       .  S
C2194      C2195   1.431       .  A
C2195      C2196   1.404       .  A
C2195      C2202   1.510   1_545  S
C2196      C2197   1.393       .  A
C2196      H2201   1.084       .  S
C2197      C2198   1.419       .  A
C2198      C2199   1.507       .  S
C2199      H2203   1.111       .  S
C2199      H2204   1.108       .  S
C2199      H2205   1.108       .  S
C2202      H2206   1.110       .  S
C2202      H2207   1.108       .  S
C2202      H2208   1.111   1_565  S
C2209      C2210   1.403       .  A
C2209      C2214   1.400       .  A
C2209      H2216   1.084       .  S
C2210      C2211   1.430       .  A
C2211      C2212   1.407       .  A
C2211      C2218   1.510       .  S
C2212      C2213   1.395       .  A
C2212      H2217   1.084       .  S
C2213      C2214   1.413       .  A
C2214      C2215   1.506       .  S
C2215      H2219   1.111       .  S
C2215      H2220   1.109       .  S
C2215      H2221   1.109       .  S
C2218      H2222   1.110       .  S
C2218      H2223   1.109       .  S
C2218      H2224   1.111       .  S
C2225      C2226   1.411       .  A
C2225      C2230   1.403       .  A
C2225      H2232   1.085       .  S
C2226      C2227   1.403       .  A
C2227      C2228   1.403       .  A
C2227      C2234   1.505       .  S
C2228      C2229   1.415       .  A
C2228      H2233   1.083       .  S
C2229      C2230   1.409       .  A
C2230      C2231   1.506       .  S
C2231      H2235   1.111       .  S
C2231      H2236   1.110       .  S
C2231      H2237   1.110       .  S
C2234      H2238   1.110       .  S
C2234      H2240   1.111       .  S
