geometry optimzed in LAMMPS
_audit_creation_date              2020-12-01 
_audit_creation_method            'lammps2cif' 
_symmetry_space_group_name_H-M    'P1' 
_symmetry_Int_Tables_number       1 
_symmetry_cell_setting            triclinic 
loop_ 
_symmetry_equiv_pos_as_xyz 
  x,y,z 
_cell_length_a                    59.74422778 
_cell_length_b                    59.69106261605241 
_cell_length_c                    43.70769862407114 
_cell_angle_alpha                 90.10049300575334 
_cell_angle_beta                  89.76396920416704 
_cell_angle_gamma                 119.94021109647169 
loop_ 
_atom_site_label 
_atom_site_type_symbol 
_atom_site_fract_x 
_atom_site_fract_y 
_atom_site_fract_z 
_atom_site_charge 
O1          O  0.10157925  0.20523046  0.33587339    -0.82300
C2          C  0.13626693  0.23811504  0.22051815     0.97100
O3          O  0.11724686  0.23416368  0.23721054    -0.71400
O4          O  0.08321604  0.21258761  0.28230777    -0.75000
Al5        Al  0.11854583  0.23944431  0.27971530     1.49000
C6          C  0.07230132  0.18847565  0.27859573     0.92400
O7          O  0.12635606  0.17030097  0.28381623    -0.81200
O8          O  0.17683555  0.22091572  0.30637934    -0.74700
Al9        Al  0.11535424  0.19062279  0.30704176     1.90100
O10         O  0.15463926  0.19784191  0.25152067    -0.73800
O11         O  0.17981752  0.26400124  0.28745993    -0.73700
O12         O  0.15679162  0.24015821  0.23183737    -0.79300
O13         O  0.14919443  0.27173229  0.27506728    -0.77500
O14         O  0.13288288  0.21977483  0.28561677    -1.13700
O15         O  0.11960311  0.24625483  0.32215694    -0.72800
C16         C  0.10909578  0.22869587  0.34212174     0.97900
C17         C  0.14151814  0.17509081  0.26143660     0.94300
Al18       Al  0.16428752  0.22984046  0.27057403     1.55600
O19         O  0.08526028  0.17711595  0.28112234    -0.77500
C20         C  0.17229873  0.27986049  0.28213056     0.98400
C21         C  0.16644902  0.21087307  0.33175025     0.93300
O22         O  0.14233662  0.20022317  0.33531485    -0.82800
O23         O  0.25501668  0.46855291  0.24840156    -0.82300
C24         C  0.24065100  0.42826824  0.36655826     0.97100
O25         O  0.22240908  0.42146965  0.34747147    -0.71400
O26         O  0.21773195  0.45853729  0.32262954    -0.75000
Al27       Al  0.22231737  0.43204270  0.30565817     1.49000
C28         C  0.22676689  0.48137381  0.31358343     0.92400
O29         O  0.29150460  0.49932873  0.32120835    -0.81200
O30         O  0.29118010  0.43968602  0.27874152    -0.74700
Al31       Al  0.27197615  0.48214676  0.28560300     1.90100
O32         O  0.30458960  0.47141238  0.32912266    -0.73800
O33         O  0.25272230  0.40237273  0.31151523    -0.73700
O34         O  0.26364339  0.43697974  0.35771164    -0.79300
O35         O  0.22047897  0.40224331  0.28866118    -0.77500
O36         O  0.25666105  0.45092673  0.30318540    -1.13700
O37         O  0.21643276  0.43940099  0.26449350    -0.72800
C38         C  0.23174219  0.45221959  0.24296324     0.97900
C39         C  0.30750038  0.49373581  0.33262970     0.94300
Al40       Al  0.27625431  0.43856888  0.31799077     1.55600
O41         O  0.24705630  0.49204922  0.29761253    -0.77500
C42         C  0.23190972  0.39050745  0.29692371     0.98400
C43         C  0.30371110  0.46058323  0.26397224     0.93300
O44         O  0.30014229  0.47947166  0.26871331    -0.82800
O45         O  0.54614110  0.41726426  0.08054303    -0.82300
C46         C  0.51973877  0.43010104  0.19989943     0.97100
O47         O  0.53138999  0.44838445  0.18084610    -0.71400
O48         O  0.57248072  0.45078532  0.15742822    -0.75000
Al49       Al  0.54300685  0.44878893  0.13938396     1.49000
C50         C  0.58591502  0.44154360  0.14759730     0.92400
O51         O  0.53802048  0.37743987  0.15118920    -0.81200
O52         O  0.48042692  0.38196276  0.11114939    -0.74700
Al53       Al  0.54157471  0.39882913  0.11680968     1.90100
O54         O  0.49753211  0.36580014  0.16029246    -0.73800
O55         O  0.48346049  0.42085166  0.14532811    -0.73700
O56         O  0.50583329  0.40707233  0.19085400    -0.79300
O57         O  0.51622386  0.45223111  0.12188935    -0.77500
O58         O  0.52649119  0.41448803  0.13568151    -1.13700
O59         O  0.55770478  0.45579668  0.09856496    -0.72800
C60         C  0.55456468  0.44098507  0.07620861     0.97900
C61         C  0.51633616  0.36178208  0.16282083     0.94300
Al62       Al  0.49447887  0.39553189  0.15064067     1.55600
O63         O  0.57645097  0.42251786  0.12957413    -0.77500
C64         C  0.49329213  0.44203931  0.13100109     0.98400
C65         C  0.48883121  0.37067968  0.09397585     0.93300
O66         O  0.51050445  0.37241724  0.09877909    -0.82800
O67         O  0.42875859  0.56967985  0.17264005    -0.82300
C68         C  0.43559824  0.53887507  0.05895965     0.97100
O69         O  0.44920258  0.55699846  0.07727447    -0.71400
O70         O  0.45623086  0.58968426  0.12144429    -0.75000
Al71       Al  0.45107853  0.55530361  0.11964472     1.49000
C72         C  0.44134782  0.59826426  0.11493061     0.92400
O73         O  0.37122449  0.54070989  0.11812359    -0.81200
O74         O  0.37538033  0.49258741  0.14132244    -0.74700
Al75       Al  0.40189089  0.55380839  0.14255443     1.90100
O76         O  0.37462396  0.51470509  0.08594471    -0.73800
O77         O  0.41772137  0.49315435  0.12385488    -0.73700
O78         O  0.41771865  0.51704540  0.06850445    -0.79300
O79         O  0.45583801  0.52619511  0.11621656    -0.77500
O80         O  0.41668258  0.53845115  0.12273814    -1.13700
O81         O  0.45483782  0.55445059  0.16262347    -0.72800
C82         C  0.44539792  0.56376597  0.18129297     0.97900
C83         C  0.36288972  0.52603429  0.09519738     0.94300
Al84       Al  0.39799631  0.50709527  0.10632145     1.55600
O85         O  0.41718854  0.58357195  0.11627229    -0.77500
C86         C  0.44168062  0.50244846  0.12123204     0.98400
C87         C  0.37409605  0.50233086  0.16660727     0.93300
O88         O  0.38556687  0.52646268  0.17047549    -0.82800
O89         O  0.20357400  0.12350585  0.40844552    -0.82300
C90         C  0.23360421  0.14758747  0.03137267     0.97100
O91         O  0.24040709  0.13541863  0.01334631    -0.71400
O92         O  0.20276187  0.09281732  0.48670361    -0.75000
Al93       Al  0.23192017  0.12252540  0.47114006     1.49000
C94         C  0.18140486  0.07964000  0.47374148     0.92400
O95         O  0.16513081  0.12610382  0.47563852    -0.81200
O96         O  0.22871055  0.18655751  0.44130424    -0.74700
Al97       Al  0.18581490  0.12496704  0.44287712     1.90100
O98         O  0.19285266  0.16639431  0.48803580    -0.73800
O99         O  0.26270118  0.18254182  0.47757477    -0.73700
O100        O  0.22543057  0.16192670  0.02129126    -0.79300
O101        O  0.26376389  0.14973702  0.45712333    -0.77500
O102        O  0.21480403  0.13949097  0.46496899    -1.13700
O103        O  0.22723248  0.10900830  0.42972221    -0.72800
C104        C  0.21866577  0.11459582  0.40617393     0.97900
C105        C  0.17015992  0.14714756  0.48842538     0.94300
Al106      Al  0.22638382  0.17098959  0.48061511     1.55600
O107        O  0.17427184  0.08948125  0.45323600    -0.77500
C108        C  0.27530527  0.17288299  0.46586533     0.98400
C109        C  0.20894525  0.17909948  0.42472269     0.93300
O110        O  0.19020082  0.15634256  0.42668372    -0.82800
O111        O  0.46270184  0.25301561  0.00754717    -0.82300
C112        C  0.42727685  0.24171312  0.38945818     0.97100
O113        O  0.42102024  0.22308521  0.40785745    -0.71400
O114        O  0.45847913  0.21960704  0.43382498    -0.75000
Al115      Al  0.43040847  0.22207283  0.44982665     1.49000
C116        C  0.48144103  0.22994749  0.44273034     0.92400
O117        O  0.49653561  0.29499211  0.43978974    -0.81200
O118        O  0.43338993  0.28887244  0.47830715    -0.74700
Al119      Al  0.47842807  0.27251985  0.47316100     1.90100
O120        O  0.46717838  0.30564910  0.42998439    -0.73800
O121        O  0.39879928  0.25051453  0.44386852    -0.73700
O122        O  0.43530253  0.26444013  0.39897912    -0.79300
O123        O  0.39916068  0.21788413  0.46536633    -0.77500
O124        O  0.44791672  0.25659135  0.45397114    -1.13700
O125        O  0.43645720  0.21490437  0.49096640    -0.72800
C126        C  0.44655780  0.22950225  0.01178716     0.97900
C127        C  0.49026096  0.31046350  0.42838948     0.94300
Al128      Al  0.43477793  0.27559915  0.43907453     1.55600
O129        O  0.49091123  0.24998365  0.45915733    -0.77500
C130        C  0.38702308  0.22881292  0.45679089     0.98400
C131        C  0.45251347  0.30019818  0.49601487     0.93300
O132        O  0.47237152  0.29795814  0.49255066    -0.82800
O133        O  0.51490131  0.13394370  0.33245231    -0.82300
C134        C  0.52873796  0.10197098  0.44691794     0.97100
O135        O  0.50687016  0.09816743  0.43803526    -0.71400
O136        O  0.50818217  0.14020908  0.41818683    -0.75000
Al137      Al  0.49700866  0.10741596  0.39992789     1.49000
C138        C  0.51933244  0.16220762  0.40583811     0.92400
O139        O  0.57439137  0.15994511  0.38336904    -0.81200
O140        O  0.53915279  0.08990514  0.34351668    -0.74700
Al141      Al  0.54334473  0.14531468  0.35891683     1.90100
O142        O  0.57725097  0.12486564  0.38133470    -0.73800
O143        O  0.51182458  0.06548907  0.39243285    -0.73700
O144        O  0.54579065  0.10421264  0.42797499    -0.79300
O145        O  0.48001000  0.07248765  0.38449365    -0.77500
O146        O  0.52725409  0.11685985  0.38168834    -1.13700
O147        O  0.48265398  0.11577002  0.36541955    -0.72800
C148        C  0.49130382  0.12455233  0.33897623     0.97900
C149        C  0.58777898  0.14895572  0.38534500     0.94300
Al150      Al  0.54210734  0.09763946  0.38601902     1.55600
O151        O  0.53257861  0.16588637  0.38188308    -0.77500
C152        C  0.48822182  0.05689004  0.38767315     0.98400
C153        C  0.54993436  0.10745904  0.32357931     0.93300
O154        O  0.55685854  0.13079700  0.32970300    -0.82800
O155        O  0.38051591  0.86845302  0.42226912    -0.82300
C156        C  0.42635787  0.90300220  0.30815229     0.97100
O157        O  0.40930650  0.90789586  0.31834709    -0.71400
O158        O  0.36877899  0.86457857  0.33579192    -0.75000
Al159      Al  0.38948911  0.89652721  0.35600697     1.49000
C160        C  0.35776986  0.84220595  0.34723371     0.92400
O161        O  0.41283377  0.84277771  0.36959343    -0.81200
O162        O  0.44869143  0.91187379  0.41077374    -0.74700
Al163      Al  0.39717642  0.85734407  0.39496039     1.90100
O164        O  0.45108511  0.87729421  0.37151392    -0.73800
O165        O  0.44602409  0.93768323  0.36367731    -0.73700
O166        O  0.44069444  0.89913098  0.32595911    -0.79300
O167        O  0.40727274  0.93043956  0.37408510    -0.77500
O168        O  0.40991111  0.88623856  0.37305095    -1.13700
O169        O  0.36576978  0.88632122  0.39008670    -0.72800
C170        C  0.36571319  0.87715737  0.41622287     0.97900
C171        C  0.43703667  0.85328218  0.36736682     0.94300
Al172      Al  0.44387145  0.90503755  0.36825926     1.55600
O173        O  0.36626231  0.83789117  0.37156399    -0.77500
C174        C  0.43121445  0.94588874  0.37190515     0.98400
C175        C  0.44121466  0.89423430  0.43066795     0.93300
O176        O  0.42509816  0.87092017  0.42418536    -0.82800
O177        O  0.19835284  0.05499951  0.16325831    -0.82300
C178        C  0.23186629  0.09967403  0.27930095     0.97100
O179        O  0.23432043  0.08105886  0.26919675    -0.71400
O180        O  0.19099231  0.04095595  0.25050674    -0.75000
Al181      Al  0.22360153  0.06196430  0.23116868     1.49000
C182        C  0.16966265  0.02925985  0.23679007     0.92400
O183        O  0.17008242  0.08535072  0.21661367    -0.81200
O184        O  0.23959474  0.12274156  0.17624189    -0.74700
Al185      Al  0.18572379  0.07052847  0.19090328     1.90100
O186        O  0.20468074  0.12381296  0.21700650    -0.73800
O187        O  0.26542020  0.11887946  0.22191686    -0.73700
O188        O  0.22800429  0.11391168  0.26130719    -0.79300
O189        O  0.25795050  0.07964486  0.21416816    -0.77500
O190        O  0.21403996  0.08297183  0.21377874    -1.13700
O191        O  0.21401252  0.03878226  0.19663742    -0.72800
C192        C  0.20615929  0.03948410  0.16994804     0.97900
C193        C  0.18054384  0.10956291  0.22029471     0.94300
Al194      Al  0.23288044  0.11695141  0.21881861     1.55600
O195        O  0.16625396  0.03851097  0.21248540    -0.77500
C196        C  0.27349154  0.10364080  0.21517615     0.98400
C197        C  0.22198744  0.11615113  0.15665189     0.93300
O198        O  0.19893421  0.09922686  0.16286836    -0.82800
O199        O  0.45987098  0.18316936  0.25458308    -0.82300
C200        C  0.43040454  0.19965740  0.13941102     0.97100
O201        O  0.42656123  0.17769601  0.14807757    -0.71400
O202        O  0.46819379  0.17824949  0.16828158    -0.75000
Al203      Al  0.43503795  0.16702562  0.18612905     1.49000
C204        C  0.48967644  0.18861528  0.18170489     0.92400
O205        O  0.48870605  0.24369748  0.20469930    -0.81200
O206        O  0.41823299  0.20995000  0.24358587    -0.74700
Al207      Al  0.47266671  0.21216926  0.22860841     1.90100
O208        O  0.45402904  0.24729374  0.20544815    -0.73800
O209        O  0.39388706  0.18298791  0.19461599    -0.73700
O210        O  0.43285667  0.21654630  0.15867490    -0.79300
O211        O  0.39969049  0.15018214  0.20087558    -0.77500
O212        O  0.44465677  0.19707270  0.20510932    -1.13700
O213        O  0.44276000  0.15177788  0.22046230    -0.72800
C214        C  0.45111583  0.15983436  0.24718141     0.97900
C215        C  0.47815911  0.25748163  0.20232863     0.94300
Al216      Al  0.42621334  0.21271814  0.20084824     1.55600
O217        O  0.49272190  0.20085681  0.20625582    -0.77500
C218        C  0.38462657  0.15915698  0.19834896     0.98400
C219        C  0.43576069  0.22044897  0.26352751     0.93300
O220        O  0.45876441  0.22624961  0.25747362    -0.82800
O221        O  0.14415603  0.94795935  0.08437917    -0.82300
C222        C  0.13168739  0.90647886  0.46801340     0.97100
O223        O  0.15376370  0.92396319  0.47716910    -0.71400
O224        O  0.15139431  0.96397460  0.49803976    -0.75000
Al225      Al  0.16198584  0.94280030  0.01526493     1.49000
C226        C  0.13973690  0.97508598  0.01315407     0.92400
O227        O  0.08460941  0.91737722  0.03297713    -0.81200
O228        O  0.11971412  0.88056060  0.06808736    -0.74700
Al229      Al  0.11571905  0.93239824  0.05758389     1.90100
O230        O  0.08211243  0.87959446  0.03122853    -0.73800
O231        O  0.14741200  0.88608206  0.01843924    -0.73700
O232        O  0.11440306  0.89208531  0.48690197    -0.79300
O233        O  0.17882108  0.92442220  0.02979051    -0.77500
O234        O  0.13175723  0.92118236  0.03289537    -1.13700
O235        O  0.17594195  0.96467439  0.05074102    -0.72800
C236        C  0.16746111  0.96342882  0.07768192     0.97900
C237        C  0.07139650  0.89315126  0.02908856     0.94300
Al238      Al  0.11701851  0.88749624  0.02604201     1.55600
O239        O  0.12698842  0.96476012  0.03720295    -0.77500
C240        C  0.17068147  0.90073071  0.02526731     0.98400
C241        C  0.10899780  0.88645913  0.08914723     0.93300
O242        O  0.10190391  0.90296501  0.08466517    -0.82800
O243        O  0.27500101  0.81590350  0.50260835    -0.82300
C244        C  0.22648609  0.80542804  0.11460456     0.97100
O245        O  0.24378712  0.82747043  0.10511643    -0.71400
O246        O  0.28436859  0.82440919  0.08939524    -0.75000
Al247      Al  0.26460031  0.83611763  0.06830248     1.49000
C248        C  0.29615526  0.81379407  0.07806551     0.92400
O249        O  0.24104901  0.75906150  0.05408706    -0.81200
O250        O  0.20647139  0.79254675  0.01088854    -0.74700
Al251      Al  0.25787761  0.78969731  0.02925664     1.90100
O252        O  0.20305268  0.75589175  0.05078990    -0.73800
O253        O  0.20843499  0.82149049  0.05729391    -0.73700
O254        O  0.21223393  0.78780992  0.09609122    -0.79300
O255        O  0.24784903  0.85263164  0.04924201    -0.77500
O256        O  0.24450579  0.80571573  0.05037418    -1.13700
O257        O  0.28932890  0.84989876  0.03540288    -0.72800
C258        C  0.29012547  0.84125949  0.00921620     0.97900
C259        C  0.21671820  0.74563221  0.05564777     0.94300
Al260      Al  0.21032085  0.79074712  0.05366092     1.55600
O261        O  0.28816376  0.80089565  0.05370267    -0.77500
C262        C  0.22394034  0.84443241  0.04948745     0.98400
C263        C  0.21488877  0.78069651  0.49214956     0.93300
O264        O  0.23055904  0.77338234  0.50026962    -0.82800
O265        O  0.22435512  0.76105940  0.24934017    -0.82300
C266        C  0.19253532  0.76574084  0.36482325     0.97100
O267        O  0.21109824  0.78017633  0.34730038    -0.71400
O268        O  0.24430618  0.78895658  0.30252050    -0.75000
Al269      Al  0.20966006  0.78219006  0.30438137     1.49000
C270        C  0.25442332  0.77509430  0.30662876     0.92400
O271        O  0.19909555  0.70411697  0.30435876    -0.81200
O272        O  0.14929726  0.70461960  0.28381861    -0.74700
Al273      Al  0.21030171  0.73430926  0.27970243     1.90100
O274        O  0.17276931  0.70568167  0.33788599    -0.73800
O275        O  0.14729702  0.74643099  0.29966806    -0.73700
O276        O  0.17161803  0.74722153  0.35465102    -0.79300
O277        O  0.17968802  0.78498862  0.30732494    -0.77500
O278        O  0.19413966  0.74783675  0.30063706    -1.13700
O279        O  0.20905849  0.78669531  0.26148401    -0.72800
C280        C  0.21810086  0.77769257  0.24191509     0.97900
C281        C  0.18504873  0.69508667  0.32776352     0.94300
Al282      Al  0.16299350  0.72780395  0.31750120     1.55600
O283        O  0.24089888  0.75082633  0.30453249    -0.77500
C284        C  0.15615733  0.77048982  0.30168681     0.98400
C285        C  0.15861134  0.70326618  0.25840694     0.93300
O286        O  0.18240918  0.71657051  0.25270922    -0.82800
O287        O  0.07854993  0.88073386  0.33577140    -0.82300
C288        C  0.09017939  0.85628677  0.21522094     0.97100
O289        O  0.10873305  0.86807668  0.23384876    -0.71400
O290        O  0.11308841  0.90928094  0.25998417    -0.75000
Al291      Al  0.10981536  0.87839920  0.27615447     1.49000
C292        C  0.10431468  0.92284353  0.27078202     0.92400
O293        O  0.04036266  0.87666125  0.26603481    -0.81200
O294        O  0.04154956  0.81653744  0.30403020    -0.74700
Al295      Al  0.06074836  0.87812817  0.30007033     1.90100
O296        O  0.02702653  0.83596692  0.25526444    -0.73800
O297        O  0.07941953  0.81789572  0.27004087    -0.73700
O298        O  0.06740760  0.84213147  0.22482014    -0.79300
O299        O  0.11239947  0.85035438  0.29153058    -0.77500
O300        O  0.07555380  0.86258958  0.28021537    -1.13700
O301        O  0.11706218  0.89166044  0.31798106    -0.72800
C302        C  0.10209638  0.88862461  0.34027386     0.97900
C303        C  0.02417888  0.85560046  0.25375179     0.94300
Al304      Al  0.05560180  0.83085648  0.26483547     1.55600
O305        O  0.08532975  0.91314078  0.28884100    -0.77500
C306        C  0.10079117  0.82702291  0.28366250     0.98400
C307        C  0.03032522  0.82494723  0.32118373     0.93300
O308        O  0.03310365  0.84713923  0.31719069    -0.82800
O309        O  0.86287566  0.45706806  0.07753326    -0.82300
C310        C  0.90196592  0.48294870  0.19573226     0.97100
O311        O  0.90866427  0.47122337  0.17679094    -0.71400
O312        O  0.87041739  0.42973401  0.15347278    -0.75000
Al313      Al  0.89780486  0.45974549  0.13546168     1.49000
C314        C  0.84758991  0.41638290  0.14433243     0.92400
O315        O  0.83164352  0.46449255  0.14904049    -0.81200
O316        O  0.89354647  0.52207762  0.10708691    -0.74700
Al317      Al  0.84907050  0.46112686  0.11404068     1.90100
O318        O  0.86013324  0.50534021  0.15656180    -0.73800
O319        O  0.92904617  0.51923846  0.14216395    -0.73700
O320        O  0.89278911  0.49683810  0.18686177    -0.79300
O321        O  0.92827833  0.48697924  0.11817802    -0.77500
O322        O  0.87988840  0.47616718  0.13221535    -1.13700
O323        O  0.89016143  0.44544451  0.09451578    -0.72800
C324        C  0.87855871  0.44920634  0.07265654     0.97900
C325        C  0.83755805  0.48633212  0.16012200     0.94300
Al326      Al  0.89285815  0.50820481  0.14685342     1.55600
O327        O  0.83797536  0.42602987  0.12667181    -0.77500
C328        C  0.94081557  0.50965023  0.12829550     0.98400
C329        C  0.87319644  0.51432359  0.09146080     0.93300
O330        O  0.85343570  0.49247050  0.09640377    -0.82800
O331        O  0.13311314  0.57369512  0.17076532    -0.82300
C332        C  0.09425294  0.56803773  0.05816460     0.97100
O333        O  0.10038226  0.55485523  0.07519055    -0.71400
O334        O  0.12648732  0.54780614  0.11877120    -0.75000
Al335      Al  0.09678939  0.55204638  0.11778130     1.49000
C336        C  0.15012329  0.56319261  0.11353792     0.92400
O337        O  0.16006092  0.63233725  0.11891107    -0.81200
O338        O  0.10958189  0.62783176  0.14043642    -0.74700
Al339      Al  0.14343382  0.60114380  0.14204166     1.90100
O340        O  0.13138832  0.62794503  0.08513854    -0.73800
O341        O  0.06731235  0.58470304  0.12499813    -0.73700
O342        O  0.09005355  0.58535239  0.06896797    -0.79300
O343        O  0.06285765  0.54699887  0.11518338    -0.77500
O344        O  0.11366397  0.58627091  0.12186129    -1.13700
O345        O  0.09201596  0.54740632  0.16072782    -0.72800
C346        C  0.11057321  0.55722422  0.17943686     0.97900
C347        C  0.15394580  0.64046406  0.09568212     0.94300
Al348      Al  0.10063674  0.60484660  0.10623397     1.55600
O349        O  0.15908943  0.58730520  0.11519718    -0.77500
C350        C  0.05293621  0.56070837  0.12142768     0.98400
C351        C  0.12015958  0.62887932  0.16578722     0.93300
O352        O  0.13125160  0.61601973  0.17067797    -0.82800
O353        O  0.77895240  0.53551063  0.00675929    -0.82300
C354        C  0.80842976  0.57682782  0.38613138     0.97100
O355        O  0.79706710  0.58379048  0.40527715    -0.71400
O356        O  0.75583825  0.54487576  0.42794319    -0.75000
Al357      Al  0.78519458  0.57211121  0.44652949     1.49000
C358        C  0.74249051  0.52193178  0.43687295     0.92400
O359        O  0.79011156  0.50581752  0.43282943    -0.81200
O360        O  0.84744447  0.56761379  0.47424472    -0.74700
Al361      Al  0.78657088  0.52322681  0.46782975     1.90100
O362        O  0.83066626  0.53478938  0.42486385    -0.73800
O363        O  0.84453260  0.60307123  0.44057360    -0.73700
O364        O  0.82221424  0.56752744  0.39493117    -0.79300
O365        O  0.81210960  0.60222452  0.46450942    -0.77500
O366        O  0.80161235  0.55416905  0.44970999    -1.13700
O367        O  0.77023200  0.56382714  0.48724287    -0.72800
C368        C  0.77143190  0.55149547  0.01110570     0.97900
C369        C  0.81194411  0.51208489  0.42145585     0.94300
Al370      Al  0.83355061  0.56722917  0.43490350     1.55600
O371        O  0.75178788  0.51226809  0.45495570    -0.77500
C372        C  0.83504757  0.61454862  0.45521494     0.98400
C373        C  0.83973039  0.54738068  0.49010048     0.93300
O374        O  0.81781909  0.52762057  0.48563501    -0.82800
O375        O  0.91664273  0.80410103  0.40684896    -0.82300
C376        C  0.89970079  0.76563265  0.02438252     0.97100
O377        O  0.88098911  0.75809185  0.00583795    -0.71400
O378        O  0.87942240  0.79525568  0.47817079    -0.75000
Al379      Al  0.88416872  0.76827170  0.46436601     1.49000
C380        C  0.88942582  0.81829200  0.46964100     0.92400
O381        O  0.95500817  0.83576910  0.47814455    -0.81200
O382        O  0.95148074  0.77338790  0.43910553    -0.74700
Al383      Al  0.93444040  0.81781570  0.44336640     1.90100
O384        O  0.96729386  0.80751990  0.48711975    -0.73800
O385        O  0.91376562  0.73849998  0.47493982    -0.73700
O386        O  0.92245722  0.77331309  0.01513876    -0.79300
O387        O  0.88180173  0.73745619  0.45042184    -0.77500
O388        O  0.91857784  0.78699678  0.46201740    -1.13700
O389        O  0.87846959  0.77367174  0.42244441    -0.72800
C390        C  0.89371729  0.78705631  0.40119101     0.97900
C391        C  0.97066939  0.83001919  0.49009318     0.94300
Al392      Al  0.93785648  0.77476648  0.47819488     1.55600
O393        O  0.91065537  0.82906087  0.45551032    -0.77500
C394        C  0.89247341  0.72591617  0.46160318     0.98400
C395        C  0.96340469  0.79304154  0.42209092     0.93300
O396        O  0.96129277  0.81296264  0.42588618    -0.82800
O397        O  0.84820964  0.80458477  0.16133650    -0.82300
C398        C  0.86337215  0.77110563  0.27412645     0.97100
O399        O  0.84121089  0.76652851  0.26537765    -0.71400
O400        O  0.84156091  0.80832135  0.24756182    -0.75000
Al401      Al  0.83102539  0.77641530  0.22798264     1.49000
C402        C  0.85202377  0.83061382  0.23608953     0.92400
O403        O  0.90778715  0.83122148  0.21200727    -0.81200
O404        O  0.87405330  0.76211934  0.17012759    -0.74700
Al405      Al  0.87672972  0.81626797  0.18766427     1.90100
O406        O  0.91159775  0.79672426  0.20849357    -0.73800
O407        O  0.84724303  0.73587860  0.21835154    -0.73700
O408        O  0.88069519  0.77442208  0.25498960    -0.79300
O409        O  0.81491753  0.74215252  0.21096700    -0.77500
O410        O  0.86138258  0.78721880  0.20957264    -1.13700
O411        O  0.81621599  0.78511832  0.19442738    -0.72800
C412        C  0.82458435  0.79431032  0.16808193     0.97900
C413        C  0.92161806  0.82068818  0.21309794     0.94300
Al414      Al  0.87701150  0.76872810  0.21277031     1.55600
O415        O  0.86508052  0.83542405  0.21180004    -0.77500
C416        C  0.82359635  0.72690641  0.21344661     0.98400
C417        C  0.88413993  0.78008071  0.15057743     0.93300
O418        O  0.89094085  0.80321830  0.15758398    -0.82800
O419        O  0.71522718  0.54237836  0.25368531    -0.82300
C420        C  0.75941834  0.56983948  0.13772616     0.97100
O421        O  0.74217383  0.57481241  0.14676657    -0.71400
O422        O  0.70169734  0.53213556  0.16707093    -0.75000
Al423      Al  0.72292142  0.56561527  0.18465736     1.49000
C424        C  0.69066560  0.51109478  0.18167266     0.92400
O425        O  0.74684137  0.51283978  0.20444374    -0.81200
O426        O  0.78346620  0.58412062  0.24068047    -0.74700
Al427      Al  0.73137857  0.52917320  0.22800911     1.90100
O428        O  0.78488165  0.54777045  0.20364480    -0.73800
O429        O  0.77969055  0.60729327  0.19125611    -0.73700
O430        O  0.77409013  0.56728568  0.15637163    -0.79300
O431        O  0.74086951  0.60064782  0.19979798    -0.77500
O432        O  0.74375424  0.55660153  0.20360622    -1.13700
O433        O  0.69965390  0.55741405  0.21868607    -0.72800
C434        C  0.69992281  0.55010218  0.24576714     0.97900
C435        C  0.77111673  0.52357020  0.20133440     0.94300
Al436      Al  0.77767811  0.57517693  0.19827591     1.55600
O437        O  0.70002861  0.50872387  0.20639529    -0.77500
C438        C  0.76488677  0.61588275  0.19775984     0.98400
C439        C  0.77680510  0.56703273  0.26122126     0.93300
O440        O  0.75959437  0.54386060  0.25619397    -0.82800
O441        O  0.60955237  0.48699063  0.33178054    -0.82300
C442        C  0.56799257  0.47616977  0.44993999     0.97100
O443        O  0.58773009  0.49632418  0.44011511    -0.71400
O444        O  0.62579575  0.49121010  0.41851196    -0.75000
Al445      Al  0.60566098  0.50468722  0.40150592     1.49000
C446        C  0.63687821  0.48185003  0.40290817     0.92400
O447        O  0.57952009  0.42805357  0.38426066    -0.81200
O448        O  0.54336147  0.46224616  0.34610389    -0.74700
Al449      Al  0.59444855  0.45858512  0.35889399     1.90100
O450        O  0.54176477  0.42597170  0.38707438    -0.73800
O451        O  0.54912097  0.49250076  0.39207693    -0.73700
O452        O  0.55235206  0.45918790  0.43166604    -0.79300
O453        O  0.58933098  0.52313071  0.38733108    -0.77500
O454        O  0.58329314  0.47494934  0.38337635    -1.13700
O455        O  0.62765562  0.51819679  0.36599940    -0.72800
C456        C  0.62547224  0.51017628  0.33867448     0.97900
C457        C  0.55533984  0.41518418  0.38893991     0.94300
Al458      Al  0.54948959  0.46117714  0.38892224     1.55600
O459        O  0.62704128  0.47020174  0.37828089    -0.77500
C460        C  0.56562045  0.51573214  0.38718869     0.98400
C461        C  0.54907879  0.45063782  0.32614402     0.93300
O462        O  0.56525740  0.44355012  0.33200965    -0.82800
O463        O  0.48283237  0.61776147  0.42487084    -0.82300
C464        C  0.47157548  0.57482783  0.30891096     0.97100
O465        O  0.49340866  0.59207463  0.31895513    -0.71400
O466        O  0.48878696  0.63117703  0.33835527    -0.75000
Al467      Al  0.50145861  0.61119010  0.35721960     1.49000
C468        C  0.47720735  0.64140163  0.35125468     0.92400
O469        O  0.42372394  0.58406883  0.37418379    -0.81200
O470        O  0.46049521  0.54974279  0.41040739    -0.74700
Al471      Al  0.45470570  0.60060918  0.39828402     1.90100
O472        O  0.42229078  0.54678567  0.37384647    -0.73800
O473        O  0.48860600  0.55545744  0.36121474    -0.73700
O474        O  0.45361822  0.55999043  0.32682896    -0.79300
O475        O  0.51862560  0.59420006  0.37418068    -0.77500
O476        O  0.47132350  0.58945751  0.37466265    -1.13700
O477        O  0.51464148  0.63453929  0.39148063    -0.72800
C478        C  0.50592564  0.63367710  0.41815026     0.97900
C479        C  0.41100412  0.55976731  0.37159406     0.94300
Al480      Al  0.45742808  0.55571692  0.36849165     1.55600
O481        O  0.46469242  0.63196016  0.37576880    -0.77500
C482        C  0.51153167  0.57085254  0.36894351     0.98400
C483        C  0.45026815  0.55624457  0.43139143     0.93300
O484        O  0.44236330  0.57209879  0.42658073    -0.82800
O485        O  0.53207393  0.72546496  0.50042091    -0.82300
C486        C  0.56238114  0.77041383  0.11295129     0.97100
O487        O  0.56765026  0.75359276  0.10281709    -0.71400
O488        O  0.52665210  0.71263615  0.08316038    -0.75000
Al489      Al  0.55865095  0.73478346  0.06457559     1.49000
C490        C  0.50424522  0.70186697  0.07220059     0.92400
O491        O  0.50372366  0.75755210  0.04835502    -0.81200
O492        O  0.57439485  0.79443078  0.01098710    -0.74700
Al493      Al  0.51946379  0.74175228  0.02454224     1.90100
O494        O  0.53824462  0.79567030  0.04784643    -0.73800
O495        O  0.59844607  0.79174892  0.05999070    -0.73700
O496        O  0.55825041  0.78451724  0.09491096    -0.79300
O497        O  0.59296150  0.75402472  0.04814479    -0.77500
O498        O  0.54780434  0.75473351  0.04739598    -1.13700
O499        O  0.55088640  0.71213591  0.03011540    -0.72800
C500        C  0.54164914  0.71162915  0.00400411     0.97900
C501        C  0.51412982  0.78181503  0.05053692     0.94300
Al502      Al  0.56582820  0.78869445  0.05301889     1.55600
O503        O  0.49957285  0.71074736  0.04834710    -0.77500
C504        C  0.60781856  0.77777839  0.05267004     0.98400
C505        C  0.55763479  0.78645514  0.49048773     0.93300
O506        O  0.53437875  0.77004440  0.49671265    -0.82800
O507        O  0.79399260  0.85328498  0.08465143    -0.82300
C508        C  0.76024971  0.86531064  0.46964852     0.97100
O509        O  0.75523348  0.84322586  0.47918104    -0.71400
O510        O  0.79784554  0.84335919  0.49446116    -0.75000
Al511      Al  0.76663857  0.83682146  0.01802893     1.49000
C512        C  0.82036253  0.85605237  0.00994397     0.92400
O513        O  0.82332960  0.91300893  0.03420335    -0.81200
O514        O  0.75367500  0.88164267  0.07417359    -0.74700
Al515      Al  0.80692139  0.88184849  0.05831799     1.90100
O516        O  0.78971654  0.91832418  0.03619601    -0.73800
O517        O  0.72776213  0.85510337  0.02641999    -0.73700
O518        O  0.76500481  0.88358141  0.48789702    -0.79300
O519        O  0.73293491  0.82224479  0.03615722    -0.77500
O520        O  0.77832763  0.86749341  0.03594553    -1.13700
O521        O  0.77531800  0.82155097  0.05136598    -0.72800
C522        C  0.78427244  0.82977830  0.07777277     0.97900
C523        C  0.81370053  0.92761186  0.03266108     0.94300
Al524      Al  0.76096410  0.88423034  0.03191629     1.55600
O525        O  0.82526821  0.86904268  0.03433796    -0.77500
C526        C  0.71847676  0.83191634  0.03430796     0.98400
C527        C  0.77109120  0.89086573  0.09423693     0.93300
O528        O  0.79415902  0.89677296  0.08807957    -0.82800
O529        O  0.94755248  0.15349717  0.16542996    -0.82300
C530        C  0.89474679  0.13741058  0.27559744     0.97100
O531        O  0.91299885  0.15961695  0.26771139    -0.71400
O532        O  0.95518868  0.15958275  0.25146469    -0.75000
Al533      Al  0.93426461  0.17044867  0.23107874     1.49000
C534        C  0.96685069  0.14873241  0.24041610     0.92400
O535        O  0.91065497  0.09323090  0.21547739    -0.81200
O536        O  0.87848641  0.12873718  0.17037541    -0.74700
Al537      Al  0.92870442  0.12464431  0.19129396     1.90100
O538        O  0.87313640  0.09053558  0.20918273    -0.73800
O539        O  0.87794182  0.15531216  0.21870684    -0.73700
O540        O  0.88078060  0.12091528  0.25580315    -0.79300
O541        O  0.91705431  0.18735010  0.21353977    -0.77500
O542        O  0.91484035  0.14042718  0.21197904    -1.13700
O543        O  0.95885069  0.18546238  0.19830795    -0.72800
C544        C  0.96103184  0.17707131  0.17250193     0.97900
C545        C  0.88620364  0.07995906  0.21578216     0.94300
Al546      Al  0.88054232  0.12533955  0.21344691     1.55600
O547        O  0.95840164  0.13521444  0.21659571    -0.77500
C548        C  0.89315114  0.17899311  0.21487171     0.98400
C549        C  0.88676331  0.11828453  0.15169412     0.93300
O550        O  0.90286305  0.11158706  0.16012017    -0.82800
O551        O  0.81526319  0.28490513  0.25347363    -0.82300
C552        C  0.80086906  0.24235310  0.13702112     0.97100
O553        O  0.82273382  0.25972836  0.14654153    -0.71400
O554        O  0.82030421  0.29989059  0.16721537    -0.75000
Al555      Al  0.83203837  0.27835706  0.18467102     1.49000
C556        C  0.81020578  0.31105434  0.18140805     0.92400
O557        O  0.75506532  0.25430386  0.20369913    -0.81200
O558        O  0.78929782  0.21704246  0.23894617    -0.74700
Al559      Al  0.78651244  0.26939596  0.22742670     1.90100
O560        O  0.75208589  0.21627736  0.20198627    -0.73800
O561        O  0.81699293  0.22137191  0.19025187    -0.73700
O562        O  0.78311247  0.22762721  0.15517477    -0.79300
O563        O  0.84865719  0.26024803  0.19971656    -0.77500
O564        O  0.80187932  0.25728032  0.20291480    -1.13700
O565        O  0.84651918  0.30082619  0.21920279    -0.72800
C566        C  0.83853528  0.29984976  0.24627497     0.97900
C567        C  0.74157397  0.23004024  0.20046586     0.94300
Al568      Al  0.78667718  0.22339758  0.19693140     1.55600
O569        O  0.79791642  0.30151269  0.20599317    -0.77500
C570        C  0.84019517  0.23634709  0.19719609     0.98400
C571        C  0.77957693  0.22394171  0.26008432     0.93300
O572        O  0.77273663  0.24059398  0.25542722    -0.82800
O573        O  0.05418732  0.20944167  0.08832780    -0.82300
C574        C  0.09551124  0.23738510  0.46996110     0.97100
O575        O  0.07700166  0.23983653  0.48042353    -0.71400
O576        O  0.03586459  0.19711621  0.49824620    -0.75000
Al577      Al  0.06108243  0.23564871  0.02114074     1.49000
C578        C  0.02797859  0.18153759  0.01457671     0.92400
O579        O  0.08339274  0.18123033  0.03404715    -0.81200
O580        O  0.12206485  0.25089098  0.07336173    -0.74700
Al581      Al  0.06922456  0.19694912  0.06002736     1.90100
O582        O  0.12204767  0.21550519  0.03316866    -0.73800
O583        O  0.11823504  0.27682457  0.02674713    -0.73700
O584        O  0.10976046  0.23306072  0.48745709    -0.79300
O585        O  0.07973473  0.26983682  0.03808181    -0.77500
O586        O  0.08182738  0.22543828  0.03718972    -1.13700
O587        O  0.03861797  0.22652447  0.05624161    -0.72800
C588        C  0.03910216  0.21789244  0.08251909     0.97900
C589        C  0.10751523  0.19134312  0.03066175     0.94300
Al590      Al  0.11578839  0.24394326  0.03089463     1.55600
O591        O  0.03703345  0.17750108  0.03863963    -0.77500
C592        C  0.10343280  0.28533801  0.03387480     0.98400
C593        C  0.11497869  0.23331204  0.09327273     0.93300
O594        O  0.09815300  0.21017817  0.08738125    -0.82800
O595        O  0.18210593  0.46681516  0.50011912    -0.82300
C596        C  0.20090341  0.43854706  0.11578819     0.97100
O597        O  0.17889874  0.43485506  0.10778536    -0.71400
O598        O  0.18192890  0.47808704  0.08982196    -0.75000
Al599      Al  0.16869209  0.44545059  0.07083682     1.49000
C600        C  0.19173643  0.49975695  0.07678842     0.92400
O601        O  0.24519033  0.49763976  0.05021608    -0.81200
O602        O  0.20898925  0.42750646  0.01143911    -0.74700
Al603      Al  0.21317252  0.48257672  0.02734654     1.90100
O604        O  0.24757822  0.46225345  0.04896878    -0.73800
O605        O  0.18200369  0.40264176  0.05945745    -0.73700
O606        O  0.21745276  0.44098554  0.09607091    -0.79300
O607        O  0.15074523  0.41119086  0.05431048    -0.77500
O608        O  0.19802950  0.45436458  0.05075306    -1.13700
O609        O  0.15343021  0.45494392  0.03809148    -0.72800
C610        C  0.16050211  0.46245515  0.01085016     0.97900
C611        C  0.25838199  0.48642978  0.05249199     0.94300
Al612      Al  0.21269655  0.43491322  0.05384909     1.55600
O613        O  0.20303326  0.50312233  0.05133614    -0.77500
C614        C  0.15871799  0.39527123  0.05387356     0.98400
C615        C  0.21776189  0.44022234  0.49082934     0.93300
O616        O  0.22383858  0.46348660  0.49647901    -0.82800
O617        O  0.86796761  0.38936047  0.32991384    -0.82300
C618        C  0.89995092  0.43715299  0.44299582     0.97100
O619        O  0.90481582  0.41976292  0.43412971    -0.71400
O620        O  0.86218026  0.37836803  0.41639312    -0.75000
Al621      Al  0.89460488  0.39954853  0.39699138     1.49000
C622        C  0.84021316  0.36682348  0.40400796     0.92400
O623        O  0.84057729  0.42282339  0.37937193    -0.81200
O624        O  0.91068310  0.45820625  0.33989281    -0.74700
Al625      Al  0.85597373  0.40640609  0.35577626     1.90100
O626        O  0.87561510  0.46062817  0.37769887    -0.73800
O627        O  0.93531109  0.45604445  0.38865412    -0.73700
O628        O  0.89635572  0.45108443  0.42425955    -0.79300
O629        O  0.92890423  0.41746086  0.37984278    -0.77500
O630        O  0.88439626  0.41956197  0.37845046    -1.13700
O631        O  0.88568875  0.37573574  0.36382651    -0.72800
C632        C  0.87704121  0.37508575  0.33732785     0.97900
C633        C  0.85150679  0.44722454  0.38097766     0.94300
Al634      Al  0.90301691  0.45361333  0.38239250     1.55600
O635        O  0.83622571  0.37557998  0.37962762    -0.77500
C636        C  0.94406460  0.44146044  0.38185958     0.98400
C637        C  0.89302919  0.45115365  0.32015867     0.93300
O638        O  0.86998209  0.43390604  0.32613856    -0.82800
O639        O  0.13182662  0.51617352  0.41996294    -0.82300
C640        C  0.09982159  0.53316696  0.30716888     0.97100
O641        O  0.09513834  0.51099892  0.31612585    -0.71400
O642        O  0.13643988  0.50950526  0.33457299    -0.75000
Al643      Al  0.10415525  0.50016201  0.35345030     1.49000
C644        C  0.15856121  0.52003189  0.34657729     0.92400
O645        O  0.15996489  0.57735994  0.37084913    -0.81200
O646        O  0.09005940  0.54456511  0.41010239    -0.74700
Al647      Al  0.14400885  0.54536497  0.39426935     1.90100
O648        O  0.12581490  0.58163838  0.37308998    -0.73800
O649        O  0.06516639  0.51842969  0.36119439    -0.73700
O650        O  0.10456856  0.55120488  0.32581952    -0.79300
O651        O  0.06967925  0.48511912  0.36983771    -0.77500
O652        O  0.11547640  0.53078239  0.37179730    -1.13700
O653        O  0.11161769  0.48440139  0.38701134    -0.72800
C654        C  0.12117168  0.49253039  0.41316048     0.97900
C655        C  0.14976264  0.59150452  0.36931188     0.94300
Al656      Al  0.09787225  0.54744751  0.36780198     1.55600
O657        O  0.16316344  0.53389695  0.37009862    -0.77500
C658        C  0.05529361  0.49477424  0.36685783     0.98400
C659        C  0.10723629  0.55269259  0.43054992     0.93300
O660        O  0.13032405  0.55867622  0.42446427    -0.82800
O661        O  0.79591183  0.90797332  0.33277452    -0.82300
C662        C  0.75792437  0.90455472  0.22042457     0.97100
O663        O  0.76155506  0.88941668  0.23730167    -0.71400
O664        O  0.78689013  0.88046204  0.28062553    -0.75000
Al665      Al  0.75863812  0.88663441  0.28013405     1.49000
C666        C  0.81061044  0.89445545  0.27513603     0.92400
O667        O  0.82512929  0.96523221  0.27820142    -0.81200
O668        O  0.77131297  0.96092361  0.30636561    -0.74700
Al669      Al  0.80731016  0.93489631  0.30283173     1.90100
O670        O  0.79494445  0.96557471  0.25092238    -0.73800
O671        O  0.72973113  0.91980595  0.28640838    -0.73700
O672        O  0.75529557  0.92290374  0.23128184    -0.79300
O673        O  0.72526791  0.88212850  0.27786858    -0.77500
O674        O  0.77671176  0.92103797  0.28415820    -1.13700
O675        O  0.75454471  0.88211685  0.32336413    -0.72800
C676        C  0.77345376  0.89132330  0.34171159     0.97900
C677        C  0.81837397  0.97555708  0.25794402     0.94300
Al678      Al  0.76394606  0.94050040  0.26998502     1.55600
O679        O  0.82082953  0.91872708  0.27612163    -0.77500
C680        C  0.71535622  0.89587864  0.28312725     0.98400
C681        C  0.78432185  0.96281446  0.32995374     0.93300
O682        O  0.79800338  0.95222886  0.33141791    -0.82800
O683        O  0.52733110  0.78650459  0.24469476    -0.82300
C684        C  0.56563284  0.81170516  0.36333783     0.97100
O685        O  0.57214485  0.79990392  0.34436167    -0.71400
O686        O  0.53441984  0.75858491  0.32085262    -0.75000
Al687      Al  0.56160763  0.78872600  0.30304983     1.49000
C688        C  0.51195035  0.74480450  0.31086894     0.92400
O689        O  0.49454503  0.79110027  0.31621097    -0.81200
O690        O  0.55502882  0.85044956  0.27499967    -0.74700
Al691      Al  0.51251811  0.78903412  0.28110372     1.90100
O692        O  0.52255298  0.83203347  0.32500609    -0.73800
O693        O  0.59167042  0.84880572  0.30805653    -0.73700
O694        O  0.55666479  0.82570862  0.35432126    -0.79300
O695        O  0.59185121  0.81625743  0.28596174    -0.77500
O696        O  0.54324095  0.80465429  0.29963608    -1.13700
O697        O  0.55439845  0.77470460  0.26214222    -0.72800
C698        C  0.54354182  0.77925668  0.24012079     0.97900
C699        C  0.50017604  0.81264086  0.32802072     0.94300
Al700      Al  0.55552525  0.83656288  0.31434288     1.55600
O701        O  0.50240359  0.75401792  0.29255071    -0.77500
C702        C  0.60365329  0.83953369  0.29404337     0.98400
C703        C  0.53427859  0.84241613  0.26020930     0.93300
O704        O  0.51537803  0.81995211  0.26453992    -0.82800
O705        O  0.58461897  0.13682763  0.07792431    -0.82300
C706        C  0.57096076  0.09931623  0.19752691     0.97100
O707        O  0.55263324  0.09277407  0.17867209    -0.71400
O708        O  0.54982651  0.13083911  0.15417308    -0.75000
Al709      Al  0.55225689  0.10315639  0.13692866     1.49000
C710        C  0.55871605  0.15323182  0.14367202     0.92400
O711        O  0.62223538  0.16976556  0.14898656    -0.81200
O712        O  0.61969056  0.10794500  0.10899586    -0.74700
Al713      Al  0.60209318  0.15159721  0.11415362     1.90100
O714        O  0.63474835  0.14154587  0.15832440    -0.73800
O715        O  0.58108848  0.07211541  0.14321872    -0.73700
O716        O  0.59387235  0.10811420  0.18831821    -0.79300
O717        O  0.54901905  0.07249744  0.12041798    -0.77500
O718        O  0.58652131  0.12103477  0.13328347    -1.13700
O719        O  0.54571036  0.11028825  0.09569771    -0.72800
C720        C  0.56103638  0.12124708  0.07345847     0.97900
C721        C  0.63805138  0.16415103  0.16092856     0.94300
Al722      Al  0.60568818  0.10842755  0.14839827     1.55600
O723        O  0.57759777  0.16244655  0.12537167    -0.77500
C724        C  0.55977973  0.06025224  0.12946935     0.98400
C725        C  0.63246128  0.12826147  0.09330342     0.93300
O726        O  0.62979702  0.14778252  0.09751289    -0.82800
O727        O  0.43052476  0.86773393  0.17037799    -0.82300
C728        C  0.46440244  0.90719980  0.05773119     0.97100
O729        O  0.44555987  0.90299172  0.07493330    -0.71400
O730        O  0.41153707  0.87769037  0.11898080    -0.75000
Al731      Al  0.44617310  0.90559777  0.11788056     1.49000
C732        C  0.40153419  0.85397787  0.11317796     0.92400
O733        O  0.45671091  0.83831689  0.11306016    -0.81200
O734        O  0.50704928  0.89058639  0.14150471    -0.74700
Al735      Al  0.44507829  0.85611155  0.13922919     1.90100
O736        O  0.48692781  0.86888363  0.08552071    -0.73800
O737        O  0.50806233  0.93327488  0.12414171    -0.73700
O738        O  0.48537031  0.90973941  0.06827898    -0.79300
O739        O  0.47558877  0.93888006  0.11547125    -0.77500
O740        O  0.46201087  0.88698321  0.12098994    -1.13700
O741        O  0.44620620  0.90929853  0.16104912    -0.72800
C742        C  0.43660763  0.89030059  0.17936738     0.97900
C743        C  0.47321019  0.84530848  0.09195179     0.94300
Al744      Al  0.49399653  0.89951679  0.10617032     1.55600
O745        O  0.41530769  0.84348063  0.11335754    -0.77500
C746        C  0.49914779  0.94822673  0.12081646     0.98400
C747        C  0.49603443  0.87730184  0.16508195     0.93300
O748        O  0.47179165  0.86426646  0.16705466    -0.82800
O749        O  0.87593875  0.08210140  0.40685255    -0.82300
C750        C  0.85762895  0.09840858  0.02553853     0.97100
O751        O  0.86778059  0.11695694  0.00658300    -0.71400
O752        O  0.90661536  0.11764612  0.48186178    -0.75000
Al753      Al  0.87567837  0.11444113  0.46647009     1.49000
C754        C  0.91985171  0.10846631  0.47116155     0.92400
O755        O  0.87348458  0.04465952  0.47728158    -0.81200
O756        O  0.81272156  0.04637654  0.44229115    -0.74700
Al757      Al  0.87435802  0.06478447  0.44306290     1.90100
O758        O  0.83317774  0.03193693  0.48949388    -0.73800
O759        O  0.81619818  0.08504579  0.47656458    -0.73700
O760        O  0.84416136  0.07521565  0.01700929    -0.79300
O761        O  0.84740603  0.11671930  0.45150933    -0.77500
O762        O  0.85969601  0.08013751  0.46345155    -1.13700
O763        O  0.88795118  0.12086652  0.42461456    -0.72800
C764        C  0.88341925  0.10560908  0.40231877     0.97900
C765        C  0.85250641  0.02864561  0.49003037     0.94300
Al766      Al  0.82859151  0.06081078  0.48056708     1.55600
O767        O  0.90987626  0.08941377  0.45315196    -0.77500
C768        C  0.82468417  0.10576714  0.46160150     0.98400
C769        C  0.81999639  0.03375759  0.42585947     0.93300
O770        O  0.84257826  0.03712298  0.42788812    -0.82800
O771        O  0.75753457  0.23062834  0.00084304    -0.82300
C772        C  0.76534099  0.19907021  0.38715365     0.97100
O773        O  0.77952524  0.21777579  0.40462950    -0.71400
O774        O  0.78781077  0.25180888  0.44839493    -0.75000
Al775      Al  0.78134430  0.21713008  0.44763582     1.49000
C776        C  0.77391162  0.26162194  0.44273496     0.92400
O777        O  0.70284706  0.20531291  0.44477510    -0.81200
O778        O  0.70508562  0.15570024  0.47068099    -0.74700
Al779      Al  0.73283081  0.21757215  0.46993610     1.90100
O780        O  0.70399127  0.17658350  0.41505769    -0.73800
O781        O  0.74704788  0.15486554  0.45322368    -0.73700
O782        O  0.74669838  0.17811052  0.39757138    -0.79300
O783        O  0.78520426  0.18768826  0.44551312    -0.77500
O784        O  0.74690470  0.20105361  0.45093457    -1.13700
O785        O  0.78529586  0.21732769  0.49088809    -0.72800
C786        C  0.77442210  0.22532794  0.01015836     0.97900
C787        C  0.69334796  0.18924455  0.42325622     0.94300
Al788      Al  0.72750633  0.16921368  0.43551784     1.55600
O789        O  0.74960828  0.24770427  0.44380983    -0.77500
C790        C  0.77099620  0.16400739  0.45045204     0.98400
C791        C  0.70311735  0.16616933  0.49497571     0.93300
O792        O  0.71486105  0.19040565  0.49802568    -0.82800
C793        C  0.82014858  0.14206301  0.44085835    -0.21800
C794        C  0.80893520  0.11850680  0.45681560    -0.09800
C795        C  0.78393410  0.10891493  0.46926928     0.29100
C796        C  0.77116025  0.12330933  0.46670681    -0.21800
C797        C  0.78316592  0.14750945  0.45196314    -0.09800
C798        C  0.80763225  0.15636204  0.43847612     0.29100
F799        F  0.81971215  0.17901355  0.42278903    -0.20300
H800        H  0.83913302  0.14993908  0.43058494     0.17400
H801        H  0.75221791  0.11586981  0.47693518     0.17400
F802        F  0.77206168  0.08602640  0.48444414    -0.20300
C803        C  0.66230653  0.12753470  0.01748990    -0.21800
C804        C  0.68727930  0.14873854  0.02162692    -0.09800
C805        C  0.69513987  0.15877627  0.05128618     0.29100
C806        C  0.67749118  0.15002464  0.07542717    -0.21800
C807        C  0.65186356  0.13068510  0.07070791    -0.09800
C808        C  0.64463266  0.11842502  0.04204009     0.29100
F809        F  0.61994427  0.09942744  0.03708961    -0.20300
H810        H  0.65351347  0.12623130  0.49137140     0.17400
H811        H  0.68338565  0.15961562  0.09741971     0.17400
F812        F  0.71945253  0.17849800  0.05642114    -0.20300
C813        C  0.52216857  0.01955480  0.11038950    -0.21800
C814        C  0.54617671  0.03165153  0.12524141    -0.09800
C815        C  0.55535029  0.01593280  0.13771555     0.29100
C816        C  0.54034402  0.98879128  0.13592473    -0.21800
C817        C  0.51586872  0.97686544  0.12204191    -0.09800
C818        C  0.50720609  0.99271253  0.10884627     0.29100
F819        F  0.48415370  0.98236162  0.09421013    -0.20300
H820        H  0.51450795  0.03090640  0.10035398     0.17400
H821        H  0.54759924  0.97711268  0.14601684     0.17400
F822        F  0.57842925  0.02664750  0.15228747    -0.20300
C823        C  0.49992365  0.87134859  0.22031437    -0.21800
C824        C  0.51098517  0.87578089  0.19098418    -0.09800
C825        C  0.53363422  0.87441987  0.18654952     0.29100
C826        C  0.54335796  0.86614357  0.21054503    -0.21800
C827        C  0.53043882  0.85910286  0.23882699    -0.09800
C828        C  0.50940580  0.86292279  0.24396361     0.29100
F829        F  0.49672920  0.85645440  0.27123577    -0.20300
H830        H  0.48275544  0.87271010  0.22440438     0.17400
H831        H  0.55956486  0.86319154  0.20627544     0.17400
F832        F  0.54472761  0.87846951  0.15843819    -0.20300
C833        C  0.78831006  0.97081089  0.38551999    -0.21800
C834        C  0.78496222  0.97841673  0.35633452    -0.09800
C835        C  0.78748017  0.00296099  0.35240204     0.29100
C836        C  0.79624642  0.02064025  0.37670109    -0.21800
C837        C  0.80231827  0.01376153  0.40482789    -0.09800
C838        C  0.79710441  0.98838392  0.40957229     0.29100
F839        F  0.80300895  0.98141913  0.43661446    -0.20300
H840        H  0.78614003  0.95186755  0.38906082     0.17400
H841        H  0.80065035  0.04033800  0.37269977     0.17400
F842        F  0.78449962  0.01087154  0.32438625    -0.20300
C843        C  0.67220182  0.85802130  0.27233556    -0.21800
C844        C  0.68670461  0.88308827  0.28444938    -0.09800
C845        C  0.67345500  0.89477554  0.29743695     0.29100
C846        C  0.64632729  0.88094240  0.29958920    -0.21800
C847        C  0.63197535  0.85540613  0.28849538    -0.09800
C848        C  0.64534542  0.84440215  0.27411755     0.29100
F849        F  0.63264519  0.82012150  0.26234755    -0.20300
H850        H  0.68171056  0.84864259  0.26152654     0.17400
H851        H  0.63661079  0.88999868  0.31064141     0.17400
F852        F  0.68662892  0.91911248  0.30892422    -0.20300
C853        C  0.98564431  0.43981623  0.37889652    -0.21800
C854        C  0.97227309  0.45360433  0.37643413    -0.09800
C855        C  0.98639268  0.48020768  0.36975863     0.29100
C856        C  0.01297680  0.49273475  0.36652762    -0.21800
C857        C  0.02671055  0.47945680  0.36975350    -0.09800
C858        C  0.01276211  0.45265588  0.37568287     0.29100
F859        F  0.02519814  0.43898998  0.37866956    -0.20300
H860        H  0.97521359  0.41932486  0.38397226     0.17400
H861        H  0.02282393  0.51326495  0.36165853     0.17400
F862        F  0.97460043  0.49447662  0.36623430    -0.20300
C863        C  0.82467285  0.33234189  0.44413820    -0.21800
C864        C  0.81984557  0.34158002  0.41682890    -0.09800
C865        C  0.79728980  0.32488075  0.40018464     0.29100
C866        C  0.78105088  0.29920956  0.40981866    -0.21800
C867        C  0.78714998  0.28968270  0.43588504    -0.09800
C868        C  0.80869421  0.30674656  0.45345627     0.29100
F869        F  0.81490152  0.29832019  0.47916613    -0.20300
H870        H  0.84165672  0.34456388  0.45761825     0.17400
H871        H  0.76469673  0.28633577  0.39581952     0.17400
F872        F  0.79178289  0.33268903  0.37352449    -0.20300
C873        C  0.11551354  0.47576254  0.46613491    -0.21800
C874        C  0.12236570  0.47493553  0.43559558    -0.09800
C875        C  0.13614135  0.46227710  0.42827843     0.29100
C876        C  0.14588648  0.45371959  0.45168808    -0.21800
C877        C  0.14138954  0.45710715  0.48246999    -0.09800
C878        C  0.12475759  0.46666841  0.48954587     0.29100
F879        F  0.12948314  0.48452593  0.02658365    -0.20300
H880        H  0.10460310  0.48516161  0.47200123     0.17400
H881        H  0.15862128  0.44629516  0.44587498     0.17400
F882        F  0.14293365  0.46115544  0.39886403    -0.20300
C883        C  0.13711941  0.32984946  0.01975558    -0.21800
C884        C  0.11466863  0.31374206  0.03658944    -0.09800
C885        C  0.10476657  0.32517312  0.05675567     0.29100
C886        C  0.11825920  0.35214211  0.06132655    -0.21800
C887        C  0.14163296  0.36782775  0.04580973    -0.09800
C888        C  0.15039791  0.35650548  0.02420125     0.29100
F889        F  0.17225423  0.37126748  0.00776180    -0.20300
H890        H  0.14483701  0.32168790  0.00351187     0.17400
H891        H  0.11121842  0.36056784  0.07807522     0.17400
F892        F  0.08307820  0.31025460  0.07335737    -0.20300
C893        C  0.98644754  0.13910569  0.01970674    -0.21800
C894        C  0.99907851  0.15464525  0.49817815    -0.09800
C895        C  0.99158777  0.15531879  0.46780542     0.29100
C896        C  0.96607206  0.13862962  0.45839724    -0.21800
C897        C  0.94753120  0.12128064  0.47912967    -0.09800
C898        C  0.96089664  0.12216014  0.01055582     0.29100
F899        F  0.94511692  0.10194386  0.02879315    -0.20300
H900        H  0.99301061  0.13565511  0.04131878     0.17400
H901        H  0.96040574  0.14029280  0.43537269     0.17400
F902        F  0.00863745  0.17271417  0.44751671    -0.20300
C903        C  0.70156132  0.22588078  0.17556979    -0.21800
C904        C  0.71326052  0.21643298  0.19562458    -0.09800
C905        C  0.69816404  0.19152451  0.20812365     0.29100
C906        C  0.67282739  0.17558606  0.19862889    -0.21800
C907        C  0.66178951  0.18392044  0.17639424    -0.09800
C908        C  0.67589313  0.20970085  0.16593527     0.29100
F909        F  0.66580886  0.21846084  0.14442434    -0.20300
H910        H  0.71280217  0.24497557  0.16566334     0.17400
H911        H  0.66228925  0.15599748  0.20738512     0.17400
F912        F  0.70842893  0.18189321  0.22828725    -0.20300
C913        C  0.85122235  0.31073629  0.30047797    -0.21800
C914        C  0.85564505  0.31798036  0.26953147    -0.09800
C915        C  0.87237338  0.34398791  0.26175472     0.29100
C916        C  0.88160863  0.36282251  0.28459410    -0.21800
C917        C  0.87498134  0.35574284  0.31527434    -0.09800
C918        C  0.86107422  0.32950594  0.32333890     0.29100
F919        F  0.85417558  0.32225330  0.35288889    -0.20300
H920        H  0.83841905  0.29074929  0.30683829     0.17400
H921        H  0.89229298  0.38305026  0.27817409     0.17400
F922        F  0.87713553  0.35155285  0.23203368    -0.20300
C923        C  0.81274325  0.23852501  0.08337543    -0.21800
C924        C  0.79543899  0.23953118  0.10432687    -0.09800
C925        C  0.77224098  0.23728971  0.09403952     0.29100
C926        C  0.76608239  0.23338917  0.06321806    -0.21800
C927        C  0.78265478  0.23108130  0.04219426    -0.09800
C928        C  0.80627564  0.23399709  0.05237459     0.29100
F929        F  0.82306915  0.23264885  0.03248777    -0.20300
H930        H  0.83083401  0.24050075  0.09116587     0.17400
H931        H  0.74790994  0.23151939  0.05594444     0.17400
F932        F  0.75561907  0.23910493  0.11383225    -0.20300
C933        C  0.79795119  0.22525867  0.31080028    -0.21800
C934        C  0.77683061  0.21353761  0.29098252    -0.09800
C935        C  0.75254268  0.19509234  0.30231625     0.29100
C936        C  0.74924874  0.18921015  0.33353366    -0.21800
C937        C  0.77003157  0.20215925  0.35384489    -0.09800
C938        C  0.79463787  0.21976779  0.34207563     0.29100
F939        F  0.81530471  0.23227395  0.36086871    -0.20300
H940        H  0.81673619  0.23971200  0.30225755     0.17400
H941        H  0.73012021  0.17566443  0.34205691     0.17400
F942        F  0.73182515  0.18371889  0.28347105    -0.20300
C943        C  0.86276269  0.01538225  0.25610317    -0.21800
C944        C  0.83773877  0.00060940  0.24369232    -0.09800
C945        C  0.83050806  0.01149288  0.21981282     0.29100
C946        C  0.84725016  0.03668470  0.20985000    -0.21800
C947        C  0.87163466  0.05193545  0.22328535    -0.09800
C948        C  0.87957837  0.04083832  0.24605904     0.29100
F949        F  0.90267703  0.05513149  0.26014207    -0.20300
H950        H  0.86886222  0.00772501  0.27470438     0.17400
H951        H  0.84064025  0.04469981  0.19216580     0.17400
F952        F  0.80676386  0.99833686  0.20686278    -0.20300
C953        C  0.89334964  0.21879248  0.19450882    -0.21800
C954        C  0.88200761  0.19625500  0.21261359    -0.09800
C955        C  0.85834072  0.18892425  0.22737900     0.29100
C956        C  0.84571803  0.20289066  0.22288266    -0.21800
C957        C  0.85632284  0.22467014  0.20389514    -0.09800
C958        C  0.88053366  0.23296898  0.19008796     0.29100
F959        F  0.89090887  0.25364228  0.17096108    -0.20300
H960        H  0.91147239  0.22473471  0.18279826     0.17400
H961        H  0.82719296  0.19634459  0.23393299     0.17400
F962        F  0.84709457  0.16792518  0.24601293    -0.20300
C963        C  0.90190542  0.14852134  0.33153022    -0.21800
C964        C  0.89041563  0.12990312  0.30828511    -0.09800
C965        C  0.87643529  0.10356397  0.31646333     0.29100
C966        C  0.87441255  0.09617747  0.34697374    -0.21800
C967        C  0.88610811  0.11466287  0.37026511    -0.09800
C968        C  0.89964420  0.14103256  0.36231432     0.29100
F969        F  0.91121852  0.15951683  0.38407753    -0.20300
H970        H  0.91291170  0.16887991  0.32585074     0.17400
H971        H  0.86362147  0.07572798  0.35231099     0.17400
F972        F  0.86545804  0.08467639  0.29498086    -0.20300
C973        C  0.85948801  0.12119371  0.07433802    -0.21800
C974        C  0.86365006  0.10337858  0.05797318    -0.09800
C975        C  0.87472124  0.09038522  0.07248041     0.29100
C976        C  0.88169926  0.09519552  0.10300931    -0.21800
C977        C  0.87763101  0.11293705  0.11981970    -0.09800
C978        C  0.86613680  0.12576201  0.10536028     0.29100
F979        F  0.86198301  0.14309407  0.12082947    -0.20300
H980        H  0.85104395  0.13138922  0.06315360     0.17400
H981        H  0.89052796  0.08505641  0.11343380     0.17400
F982        F  0.87974680  0.07374190  0.05668691    -0.20300
C983        C  0.97484829  0.19520100  0.12026547    -0.21800
C984        C  0.98112978  0.19433541  0.15094593    -0.09800
C985        C  0.00716286  0.20586996  0.15954253     0.29100
C986        C  0.02650880  0.21580906  0.13717884    -0.21800
C987        C  0.02013968  0.21493054  0.10612281    -0.09800
C988        C  0.99426212  0.20589470  0.09797576     0.29100
F989        F  0.98742384  0.20468336  0.06817562    -0.20300
H990        H  0.95480370  0.18618445  0.11335181     0.17400
H991        H  0.04630782  0.22258226  0.14389872     0.17400
F992        F  0.01365579  0.20485051  0.18904085    -0.20300
C993        C  0.84501944  0.96221574  0.49583428    -0.21800
C994        C  0.82957359  0.95578290  0.02725354    -0.09800
C995        C  0.82158530  0.97221682  0.04035945     0.29100
C996        C  0.83194204  0.99756226  0.03016913    -0.21800
C997        C  0.85062754  0.00725387  0.00690899    -0.09800
C998        C  0.85481799  0.98796811  0.48655479     0.29100
F999        F  0.86743725  0.99579388  0.45936163    -0.20300
H1000       H  0.84799036  0.94914736  0.48140083     0.17400
H1001       H  0.82416575  0.00920670  0.03920427     0.17400
F1002       F  0.80259445  0.96330861  0.06187647    -0.20300
C1003       C  0.74834313  0.86028884  0.38409754    -0.21800
C1004       C  0.76987386  0.88350433  0.37420005    -0.09800
C1005       C  0.78795202  0.90000248  0.39599479     0.29100
C1006       C  0.78411270  0.89379767  0.42685918    -0.21800
C1007       C  0.76271030  0.87078611  0.43677188    -0.09800
C1008       C  0.74499087  0.85369262  0.41524787     0.29100
F1009       F  0.72422424  0.83114053  0.42439858    -0.20300
H1010       H  0.73425797  0.84726066  0.36775264     0.17400
H1011       H  0.79820273  0.90695344  0.44316116     0.17400
F1012       F  0.80918132  0.92254472  0.38774447    -0.20300
C1013       C  0.74486234  0.87671312  0.17423050    -0.21800
C1014       C  0.75802687  0.90146482  0.18725905    -0.09800
C1015       C  0.77365174  0.92297922  0.16880256     0.29100
C1016       C  0.77730830  0.91950464  0.13802919    -0.21800
C1017       C  0.76469792  0.89471838  0.12525834    -0.09800
C1018       C  0.74778909  0.87338009  0.14315155     0.29100
F1019       F  0.73541416  0.84923544  0.13098008    -0.20300
H1020       H  0.73281045  0.85997901  0.18828176     0.17400
H1021       H  0.79043211  0.93603614  0.12430426     0.17400
F1022       F  0.78683067  0.94705193  0.18101899    -0.20300
C1023       C  0.49819587  0.83539652  0.05396667    -0.21800
C1024       C  0.47852001  0.82629777  0.07613234    -0.09800
C1025       C  0.46727855  0.80025625  0.08568206     0.29100
C1026       C  0.47752901  0.78478580  0.07556489    -0.21800
C1027       C  0.49908193  0.79509693  0.05596431    -0.09800
C1028       C  0.50845411  0.82016049  0.04415351     0.29100
F1029       F  0.52859583  0.83058316  0.02420579    -0.20300
H1030       H  0.50692688  0.85505037  0.04552158     0.17400
H1031       H  0.46976622  0.76543096  0.08465711     0.17400
F1032       F  0.44753203  0.79021604  0.10618156    -0.20300
C1033       C  0.67601903  0.78997327  0.03673111    -0.21800
C1034       C  0.69051939  0.81686248  0.04123381    -0.09800
C1035       C  0.67779648  0.83002693  0.05120114     0.29100
C1036       C  0.65120330  0.81687688  0.05528600    -0.21800
C1037       C  0.63631412  0.79020533  0.04961591    -0.09800
C1038       C  0.64903195  0.77666834  0.04077249     0.29100
F1039       F  0.63547836  0.75083226  0.03551221    -0.20300
H1040       H  0.68545027  0.77943989  0.02919224     0.17400
H1041       H  0.64224718  0.82792611  0.06259201     0.17400
F1042       F  0.69104969  0.85581646  0.05705416    -0.20300
C1043       C  0.55656342  0.79364956  0.15640835    -0.21800
C1044       C  0.56037904  0.77351320  0.14618382    -0.09800
C1045       C  0.56028982  0.75587073  0.16772167     0.29100
C1046       C  0.55554075  0.75804215  0.19871066    -0.21800
C1047       C  0.55043584  0.77747026  0.20831953    -0.09800
C1048       C  0.55155817  0.79558122  0.18700425     0.29100
F1049       F  0.54781268  0.81529460  0.19576612    -0.20300
H1050       H  0.55684572  0.80773619  0.14057975     0.17400
H1051       H  0.55492762  0.74406153  0.21495662     0.17400
F1052       F  0.56383063  0.73605876  0.15882962    -0.20300
C1053       C  0.57595442  0.78760679  0.43935950    -0.21800
C1054       C  0.56380996  0.79657706  0.45935114    -0.09800
C1055       C  0.55419502  0.81208408  0.44823278     0.29100
C1056       C  0.55626025  0.81815170  0.41719338    -0.21800
C1057       C  0.56729083  0.80820230  0.39659147    -0.09800
C1058       C  0.57747108  0.79307149  0.40808393     0.29100
F1059       F  0.58783609  0.78259573  0.38911488    -0.20300
H1060       H  0.58305653  0.77525588  0.44776714     0.17400
H1061       H  0.54808643  0.82967064  0.40912926     0.17400
F1062       F  0.54197156  0.82055721  0.46724362    -0.20300
C1063       C  0.53698315  0.67894024  0.43263415    -0.21800
C1064       C  0.52173890  0.65295310  0.44131501    -0.09800
C1065       C  0.51757036  0.64662027  0.47260053     0.29100
C1066       C  0.52680829  0.66606267  0.49461769    -0.21800
C1067       C  0.53945361  0.69202002  0.48568331    -0.09800
C1068       C  0.54544252  0.69845779  0.45467840     0.29100
F1069       F  0.55790765  0.72354388  0.44560917    -0.20300
H1070       H  0.54019457  0.68424269  0.40865706     0.17400
H1071       H  0.53160131  0.66242953  0.01178894     0.17400
F1072       F  0.50273176  0.62178417  0.48181917    -0.20300
C1073       C  0.48091249  0.68453940  0.35950848    -0.21800
C1074       C  0.48062343  0.66613208  0.33910215    -0.09800
C1075       C  0.48762193  0.67329219  0.30831285     0.29100
C1076       C  0.49582390  0.69862216  0.29867314    -0.21800
C1077       C  0.49768692  0.71730731  0.31960583    -0.09800
C1078       C  0.48978144  0.71002448  0.34999287     0.29100
F1079       F  0.49187042  0.72788711  0.37077645    -0.20300
H1080       H  0.47603890  0.67971300  0.38340461     0.17400
H1081       H  0.50229346  0.70408349  0.27526885     0.17400
F1082       F  0.48770425  0.65618178  0.28786639    -0.20300
C1083       C  0.56215219  0.55525802  0.39768774    -0.21800
C1084       C  0.55612075  0.53346280  0.37966274    -0.09800
C1085       C  0.53790305  0.52635754  0.35619985     0.29100
C1086       C  0.52481635  0.53985779  0.35187888    -0.21800
C1087       C  0.52939826  0.56061001  0.37100393    -0.09800
C1088       C  0.54877061  0.56883564  0.39344970     0.29100
F1089       F  0.55331762  0.58854882  0.41265051    -0.20300
H1090       H  0.57598766  0.56074179  0.41611015     0.17400
H1091       H  0.51022812  0.53337122  0.33419270     0.17400
F1092       F  0.53200788  0.50560028  0.33816132    -0.20300
C1093       C  0.68759826  0.55485163  0.29851783    -0.21800
C1094       C  0.68041230  0.54769051  0.26800625    -0.09800
C1095       C  0.65413387  0.53272567  0.26056708     0.29100
C1096       C  0.63568253  0.52224642  0.28388006    -0.21800
C1097       C  0.64319570  0.52717209  0.31470277    -0.09800
C1098       C  0.66904702  0.54508460  0.32178202     0.29100
F1099       F  0.67691180  0.55082179  0.35127233    -0.20300
H1100       H  0.70781539  0.56644650  0.30451818     0.17400
H1101       H  0.61578705  0.50877844  0.27793906     0.17400
F1102       F  0.64665295  0.52557919  0.23117740    -0.20300
C1103       C  0.79221041  0.80647063  0.15391100    -0.21800
C1104       C  0.80718809  0.79541101  0.14540430    -0.09800
C1105       C  0.80930863  0.79054640  0.11435648     0.29100
C1106       C  0.79842938  0.79882635  0.09197071    -0.21800
C1107       C  0.78619427  0.81276036  0.10040923    -0.09800
C1108       C  0.78210534  0.81551932  0.13154194     0.29100
F1109       F  0.77047057  0.82908308  0.14025107    -0.20300
H1110       H  0.79062258  0.81054191  0.17774522     0.17400
H1111       H  0.80201877  0.79684772  0.06806702     0.17400
F1112       F  0.82357974  0.77965719  0.10564805    -0.20300
C1113       C  0.78200790  0.68676351  0.19760743    -0.21800
C1114       C  0.80666586  0.69834754  0.21123344    -0.09800
C1115       C  0.81575531  0.68220046  0.22231417     0.29100
C1116       C  0.80123244  0.65556820  0.21872682    -0.21800
C1117       C  0.77719124  0.64394330  0.20410597    -0.09800
C1118       C  0.76729500  0.65966545  0.19402556     0.29100
F1119       F  0.74424787  0.64907605  0.17940055    -0.20300
H1120       H  0.77450606  0.69869406  0.18892866     0.17400
H1121       H  0.80914715  0.64388003  0.22708829     0.17400
F1122       F  0.83893090  0.69204142  0.23656363    -0.20300
C1123       C  0.82885112  0.84254799  0.27434999    -0.21800
C1124       C  0.84652631  0.85017602  0.24994310    -0.09800
C1125       C  0.85538528  0.87481951  0.23677093     0.29100
C1126       C  0.84503585  0.89033082  0.24631767    -0.21800
C1127       C  0.82561575  0.88135321  0.26879190    -0.09800
C1128       C  0.81839778  0.85775383  0.28352753     0.29100
F1129       F  0.80033882  0.84879406  0.30616192    -0.20300
H1130       H  0.82182738  0.82396170  0.28534492     0.17400
H1131       H  0.85101962  0.90855042  0.23487595     0.17400
F1132       F  0.87294179  0.88336280  0.21364590    -0.20300
C1133       C  0.83241633  0.82865542  0.47034267    -0.21800
C1134       C  0.84030773  0.84934022  0.49086922    -0.09800
C1135       C  0.86455732  0.85951201  0.00910113     0.29100
C1136       C  0.88314332  0.85342858  0.49240746    -0.21800
C1137       C  0.87427641  0.83134312  0.47412573    -0.09800
C1138       C  0.84911363  0.81961769  0.46224863     0.29100
F1139       F  0.84031175  0.79860106  0.44375706    -0.20300
H1140       H  0.81273826  0.81831352  0.46203609     0.17400
H1141       H  0.90256375  0.86277861  0.50152998     0.17400
F1142       F  0.87301629  0.87732548  0.03187699    -0.20300
C1143       C  0.91629110  0.78527942  0.07503022    -0.21800
C1144       C  0.89550944  0.76713566  0.05733287    -0.09800
C1145       C  0.87102910  0.75247286  0.07103240     0.29100
C1146       C  0.86767151  0.75585072  0.10204868    -0.21800
C1147       C  0.88838780  0.77447281  0.11926093    -0.09800
C1148       C  0.91268911  0.78924987  0.10557660     0.29100
F1149       F  0.93287410  0.80772446  0.12167628    -0.20300
H1150       H  0.93521299  0.79720077  0.06490034     0.17400
H1151       H  0.84869234  0.74472665  0.11233466     0.17400
F1152       F  0.85037747  0.73522489  0.05448528    -0.20300
C1153       C  0.85887960  0.76945589  0.36117743    -0.21800
C1154       C  0.88523175  0.78259186  0.36892896    -0.09800
C1155       C  0.90380892  0.79132869  0.34533595     0.29100
C1156       C  0.89622286  0.78681224  0.31494337    -0.21800
C1157       C  0.87000297  0.77389559  0.30697129    -0.09800
C1158       C  0.85124855  0.76538313  0.33038683     0.29100
F1159       F  0.82568734  0.75310557  0.32363322    -0.20300
H1160       H  0.84422582  0.76264537  0.37891413     0.17400
H1161       H  0.91115507  0.79400500  0.29750737     0.17400
F1162       F  0.92950205  0.80415741  0.35142545    -0.20300
C1163       C  0.69566952  0.49514304  0.44939249    -0.21800
C1164       C  0.71526178  0.50715243  0.42727119    -0.09800
C1165       C  0.70847999  0.50824416  0.39679447     0.29100
C1166       C  0.68255907  0.49803111  0.38881545    -0.21800
C1167       C  0.66307659  0.48748726  0.41124799    -0.09800
C1168       C  0.66974782  0.48581216  0.44159091     0.29100
F1169       F  0.65133075  0.47587793  0.46373692    -0.20300
H1170       H  0.70060426  0.49454668  0.47308476     0.17400
H1171       H  0.67783872  0.49990825  0.36538716     0.17400
F1172       F  0.72700222  0.52006702  0.37498964    -0.20300
C1173       C  0.87739359  0.65608802  0.45820547    -0.21800
C1174       C  0.85022534  0.64286867  0.45957965    -0.09800
C1175       C  0.83750172  0.65723019  0.46256070     0.29100
C1176       C  0.85159216  0.68413277  0.46283466    -0.21800
C1177       C  0.87864937  0.69740459  0.46089905    -0.09800
C1178       C  0.89158387  0.68318750  0.45937349     0.29100
F1179       F  0.91775859  0.69543753  0.45798247    -0.20300
H1180       H  0.88760973  0.64543322  0.45597199     0.17400
H1181       H  0.84123457  0.69468127  0.46472519     0.17400
F1182       F  0.81133269  0.64539326  0.46389742    -0.20300
C1183       C  0.81402155  0.45075279  0.40293436    -0.21800
C1184       C  0.83729360  0.46141490  0.38625952    -0.09800
C1185       C  0.84891339  0.48748200  0.37695675     0.29100
C1186       C  0.83893562  0.50296073  0.38645725    -0.21800
C1187       C  0.81719495  0.49317940  0.40558786    -0.09800
C1188       C  0.80394251  0.46654089  0.41256622     0.29100
F1189       F  0.78248851  0.45621567  0.43047628    -0.20300
H1190       H  0.80456382  0.43071834  0.41009022     0.17400
H1191       H  0.84922160  0.52321630  0.38010050     0.17400
F1192       F  0.87084800  0.49859665  0.35979350    -0.20300
C1193       C  0.78926872  0.59244954  0.30972620    -0.21800
C1194       C  0.78922396  0.57316155  0.29131871    -0.09800
C1195       C  0.79786312  0.55707684  0.30343908     0.29100
C1196       C  0.80563737  0.55966659  0.33383242    -0.21800
C1197       C  0.80422692  0.57782448  0.35300840    -0.09800
C1198       C  0.79641984  0.59460780  0.34058676     0.29100
F1199       F  0.79502117  0.61252874  0.35838024    -0.20300
H1200       H  0.78233900  0.60476964  0.30070873     0.17400
H1201       H  0.81136941  0.54637433  0.34281640     0.17400
F1202       F  0.79784026  0.53815417  0.28611042    -0.20300
C1203       C  0.76666098  0.53964998  0.06596783    -0.21800
C1204       C  0.76642689  0.55602562  0.04302367    -0.09800
C1205       C  0.76305728  0.57694164  0.05150883     0.29100
C1206       C  0.76036380  0.58138222  0.08248042    -0.21800
C1207       C  0.76165374  0.56543766  0.10514692    -0.09800
C1208       C  0.76455334  0.54439055  0.09662043     0.29100
F1209       F  0.76484501  0.52802594  0.11797784    -0.20300
H1210       H  0.76888145  0.52318771  0.06029726     0.17400
H1211       H  0.75797014  0.59761474  0.08883159     0.17400
F1212       F  0.76311133  0.59344841  0.03016145    -0.20300
C1213       C  0.19266651  0.54232458  0.07264007    -0.21800
C1214       C  0.18737104  0.52027175  0.08999342    -0.09800
C1215       C  0.17379295  0.51589022  0.11780805     0.29100
C1216       C  0.16344564  0.53139950  0.12615557    -0.21800
C1217       C  0.16670934  0.55188293  0.10748457    -0.09800
C1218       C  0.18251153  0.55816476  0.08140765     0.29100
F1219       F  0.18616234  0.57804115  0.06305581    -0.20300
H1220       H  0.20314206  0.54631059  0.05121440     0.17400
H1221       H  0.15160259  0.52653205  0.14661364     0.17400
F1222       F  0.16879089  0.49548776  0.13600143    -0.20300
C1223       C  0.09577540  0.58331770  0.00490979    -0.21800
C1224       C  0.09254008  0.56355572  0.02507167    -0.09800
C1225       C  0.08953447  0.54029038  0.01323008     0.29100
C1226       C  0.10565478  0.54001359  0.48396071    -0.21800
C1227       C  0.10070355  0.55419229  0.46239502    -0.09800
C1228       C  0.09189858  0.57087373  0.47197022     0.29100
F1229       F  0.08748630  0.58513344  0.45125895    -0.20300
H1230       H  0.09825305  0.60143285  0.01357094     0.17400
H1231       H  0.11271745  0.52732914  0.47670199     0.17400
F1232       F  0.08619974  0.52068152  0.03188167    -0.20300
C1233       C  0.08795650  0.52574033  0.22183651    -0.21800
C1234       C  0.10649938  0.55055390  0.21195830    -0.09800
C1235       C  0.12155221  0.56956965  0.23361499     0.29100
C1236       C  0.11855032  0.56368191  0.26450024    -0.21800
C1237       C  0.10086639  0.53869610  0.27445704    -0.09800
C1238       C  0.08532557  0.51967658  0.25303803     0.29100
F1239       F  0.06751965  0.49550909  0.26226936    -0.20300
H1240       H  0.07601753  0.51099855  0.20541998     0.17400
H1241       H  0.13065190  0.57861243  0.28067196     0.17400
F1242       F  0.13915219  0.59402098  0.22504460    -0.20300
C1243       C  0.82934350  0.36994833  0.13105741    -0.21800
C1244       C  0.83303663  0.38872933  0.15293013    -0.09800
C1245       C  0.82659605  0.38117928  0.18359619     0.29100
C1246       C  0.81721620  0.35535235  0.19226310    -0.21800
C1247       C  0.81492838  0.33675486  0.17069152    -0.09800
C1248       C  0.82066710  0.34427218  0.13980808     0.29100
F1249       F  0.81880887  0.32704701  0.11823573    -0.20300
H1250       H  0.83467403  0.37552547  0.10739990     0.17400
H1251       H  0.81333278  0.35027534  0.21624743     0.17400
F1252       F  0.83037597  0.39899857  0.20532884    -0.20300
C1253       C  0.87184907  0.53991097  0.01361142    -0.21800
C1254       C  0.85163209  0.54518430  0.01793597    -0.09800
C1255       C  0.84289936  0.54549544  0.04767874     0.29100
C1256       C  0.85241005  0.53810983  0.07242466    -0.21800
C1257       C  0.87096873  0.53060735  0.06791441    -0.09800
C1258       C  0.88166763  0.53280287  0.03860786     0.29100
F1259       F  0.89975637  0.52576930  0.03373839    -0.20300
H1260       H  0.86574115  0.52204698  0.48393284     0.17400
H1261       H  0.84381490  0.53628728  0.09483090     0.17400
F1262       F  0.82366338  0.55094469  0.05243796    -0.20300
C1263       C  0.88510730  0.48031124  0.24813772    -0.21800
C1264       C  0.90321607  0.47901132  0.22875230    -0.09800
C1265       C  0.92019139  0.47136364  0.24082218     0.29100
C1266       C  0.91802122  0.46384467  0.27149241    -0.21800
C1267       C  0.89859502  0.46337228  0.29001803    -0.09800
C1268       C  0.88257431  0.47225355  0.27842639     0.29100
F1269       F  0.86392086  0.47235038  0.29619517    -0.20300
H1270       H  0.87182583  0.48612748  0.23939297     0.17400
H1271       H  0.93049131  0.45702960  0.28028680     0.17400
F1272       F  0.93830377  0.47046429  0.22283915    -0.20300
C1273       C  0.91325753  0.43866879  0.49730999    -0.21800
C1274       C  0.89711855  0.44061893  0.47556209    -0.09800
C1275       C  0.87733626  0.44524945  0.48507742     0.29100
C1276       C  0.88331974  0.46277326  0.01868985    -0.21800
C1277       C  0.88396094  0.44592629  0.04052672    -0.09800
C1278       C  0.88933934  0.42662503  0.03101237     0.29100
F1279       F  0.88954215  0.40967696  0.05150607    -0.20300
H1280       H  0.92851026  0.43498380  0.49017174     0.17400
H1281       H  0.87924755  0.47780118  0.02552741     0.17400
F1282       F  0.86105988  0.44667743  0.46456825    -0.20300
C1283       C  0.98177010  0.51172731  0.11155260    -0.21800
C1284       C  0.96952012  0.52405590  0.12534798    -0.09800
C1285       C  0.98509591  0.54886783  0.13808609     0.29100
C1286       C  0.01219496  0.56087339  0.13671904    -0.21800
C1287       C  0.02428989  0.54824001  0.12321014    -0.09800
C1288       C  0.00862762  0.52343853  0.11061006     0.29100
F1289       F  0.01915024  0.51036891  0.09697247    -0.20300
H1290       H  0.97051610  0.49259800  0.10176554     0.17400
H1291       H  0.02371883  0.57990752  0.14664150     0.17400
F1292       F  0.97427582  0.56138333  0.15234371    -0.20300
C1293       C  0.80954396  0.51876587  0.20825775    -0.21800
C1294       C  0.78479887  0.50898443  0.19562209    -0.09800
C1295       C  0.77593890  0.48847767  0.17458044     0.29100
C1296       C  0.79252202  0.47946178  0.16469022    -0.21800
C1297       C  0.81806002  0.49090276  0.17558956    -0.09800
C1298       C  0.82601339  0.50996727  0.19838197     0.29100
F1299       F  0.85026418  0.52109323  0.21005314    -0.20300
H1300       H  0.81672521  0.53437212  0.22478317     0.17400
H1301       H  0.78605550  0.46490252  0.14691703     0.17400
F1302       F  0.75229297  0.47880302  0.16162916    -0.20300
C1303       C  0.97070119  0.78542236  0.36816709    -0.21800
C1304       C  0.98064280  0.79381891  0.39763731    -0.09800
C1305       C  0.00743830  0.80856618  0.40178142     0.29100
C1306       C  0.02401804  0.81632958  0.37648297    -0.21800
C1307       C  0.01398567  0.80962702  0.34681111    -0.09800
C1308       C  0.98730040  0.79345898  0.34275702     0.29100
F1309       F  0.97712417  0.78758505  0.31419098    -0.20300
H1310       H  0.95008787  0.77452745  0.36465251     0.17400
H1311       H  0.04440860  0.82925139  0.37982878     0.17400
F1312       F  0.01737761  0.81740152  0.43000412    -0.20300
C1313       C  0.99091073  0.83676348  0.21336308    -0.21800
C1314       C  0.00062655  0.85270983  0.23909845    -0.09800
C1315       C  0.98547754  0.86188969  0.25323393     0.29100
C1316       C  0.96008512  0.85321261  0.24320806    -0.21800
C1317       C  0.94973145  0.83542880  0.21901989    -0.09800
C1318       C  0.96585102  0.82832441  0.20328612     0.29100
F1319       F  0.95679263  0.81185644  0.17915138    -0.20300
H1320       H  0.00229530  0.82965051  0.20200863     0.17400
H1321       H  0.94796317  0.85879242  0.25575758     0.17400
F1322       F  0.99422675  0.87711594  0.27846736    -0.20300
C1323       C  0.15066908  0.80883570  0.30776724    -0.21800
C1324       C  0.13997081  0.78301205  0.29818565    -0.09800
C1325       C  0.11512862  0.77090395  0.28502380     0.29100
C1326       C  0.10198335  0.78489203  0.28077970    -0.21800
C1327       C  0.11328046  0.81106193  0.28979077    -0.09800
C1328       C  0.13776902  0.82260983  0.30373848     0.29100
F1329       F  0.14987515  0.84762845  0.31311199    -0.20300
H1330       H  0.16954367  0.81882504  0.31835338     0.17400
H1331       H  0.08318597  0.77538597  0.27000608     0.17400
F1332       F  0.10387891  0.74596171  0.27554052    -0.20300
C1333       C  0.16595511  0.66111858  0.36857048    -0.21800
C1334       C  0.18132894  0.67071918  0.34216152    -0.09800
C1335       C  0.19013206  0.65516365  0.32793577     0.29100
C1336       C  0.18180016  0.62990321  0.33847852    -0.21800
C1337       C  0.16461719  0.61974165  0.36326332    -0.09800
C1338       C  0.15766023  0.63601810  0.37895655     0.29100
F1339       F  0.14152116  0.62706756  0.40349726    -0.20300
H1340       H  0.15912103  0.67254914  0.38036938     0.17400
H1341       H  0.18724374  0.61769363  0.32589417     0.17400
F1342       F  0.20532013  0.66356048  0.30259002    -0.20300
C1343       C  0.14363153  0.69204816  0.20497954    -0.21800
C1344       C  0.14201695  0.68444921  0.23559660    -0.09800
C1345       C  0.12839619  0.65811107  0.24326563     0.29100
C1346       C  0.11875226  0.63955778  0.22013570    -0.21800
C1347       C  0.12217683  0.64717876  0.18934372    -0.09800
C1348       C  0.13347346  0.67348646  0.18187742     0.29100
F1349       F  0.13751724  0.68129823  0.15221308    -0.20300
H1350       H  0.15417439  0.71234016  0.19887551     0.17400
H1351       H  0.11031281  0.61931715  0.22612039     0.17400
F1352       F  0.12710540  0.65037984  0.27274313    -0.20300
C1353       C  0.21248021  0.70764935  0.08507352    -0.21800
C1354       C  0.20329362  0.71770147  0.06255369    -0.09800
C1355       C  0.17939630  0.70126272  0.04861367     0.29100
C1356       C  0.16438737  0.67568879  0.05814596    -0.21800
C1357       C  0.17257747  0.66590283  0.08211901    -0.09800
C1358       C  0.19720393  0.68199835  0.09503931     0.29100
F1359       F  0.20601333  0.67350856  0.11832820    -0.20300
H1360       H  0.23077536  0.72005312  0.09617342     0.17400
H1361       H  0.14568818  0.66390505  0.04761318     0.17400
F1362       F  0.17011406  0.71017032  0.02627038    -0.20300
C1363       C  0.35777133  0.84667587  0.12362410    -0.21800
C1364       C  0.37341958  0.83919174  0.10771204    -0.09800
C1365       C  0.36218442  0.81973037  0.08542908     0.29100
C1366       C  0.33619420  0.80985198  0.07728728    -0.21800
C1367       C  0.32105837  0.81897163  0.09163253    -0.09800
C1368       C  0.33190162  0.83660729  0.11600188     0.29100
F1369       F  0.31814437  0.84560978  0.13124640    -0.20300
H1370       H  0.36591847  0.86123871  0.14140407     0.17400
H1371       H  0.32838326  0.79618704  0.05857628     0.17400
F1372       F  0.37671247  0.81176550  0.06997153    -0.20300
C1373       C  0.21491837  0.77349867  0.15610192    -0.21800
C1374       C  0.22375367  0.79922977  0.14751813    -0.09800
C1375       C  0.23122419  0.81826397  0.17037486     0.29100
C1376       C  0.22908686  0.81129389  0.20134317    -0.21800
C1377       C  0.22053724  0.78554232  0.20965612    -0.09800
C1378       C  0.21368826  0.76675461  0.18671994     0.29100
F1379       F  0.20536889  0.74168191  0.19387086    -0.20300
H1380       H  0.20954544  0.75854141  0.13896165     0.17400
H1381       H  0.23456126  0.82601753  0.21878427     0.17400
F1382       F  0.24034035  0.84340545  0.16284583    -0.20300
C1383       C  0.21216027  0.79794658  0.44192900    -0.21800
C1384       C  0.20596124  0.77654732  0.46058966    -0.09800
C1385       C  0.19366979  0.75160959  0.44809096     0.29100
C1386       C  0.18808653  0.74818322  0.41694907    -0.21800
C1387       C  0.19555983  0.76967432  0.39790123    -0.09800
C1388       C  0.20733305  0.79460518  0.41055417     0.29100
F1389       F  0.21437225  0.81561617  0.39256062    -0.20300
H1390       H  0.22185716  0.81729462  0.45143740     0.17400
H1391       H  0.17908890  0.72885328  0.40742007     0.17400
F1392       F  0.18761336  0.73071431  0.46587838    -0.20300
C1393       C  0.00542270  0.87288689  0.99419520    -0.21800
C1394       C  0.99171639  0.84666867  0.00300742    -0.09800
C1395       C  0.00466642  0.84131492  0.52938427     0.29100
C1396       C  0.02991807  0.85733422  0.53920592    -0.21800
C1397       C  0.04317233  0.87926093  0.02293625    -0.09800
C1398       C  0.03104647  0.88916904  0.00413038     0.29100
F1399       F  0.04446834  0.91378897  0.99352794    -0.20300
H1400       H  0.99696730  0.88028619  0.97808319     0.17400
H1401       H  0.03792896  0.84995288  0.55597975     0.17400
F1402       F  0.99095331  0.81718687  0.54145267    -0.20300
C1403       C  0.17753859  0.86344194  0.01733678    -0.21800
C1404       C  0.18732870  0.88884028  0.02815055    -0.09800
C1405       C  0.21131801  0.90084636  0.04334937     0.29100
C1406       C  0.22420020  0.88691339  0.04912566    -0.21800
C1407       C  0.21314506  0.86089675  0.04008707    -0.09800
C1408       C  0.19009340  0.84962695  0.02330984     0.29100
F1409       F  0.17934006  0.82490921  0.01303504    -0.20300
H1410       H  0.15948147  0.85373615  0.00492771     0.17400
H1411       H  0.24207426  0.89599050  0.06191556     0.17400
F1412       F  0.22164895  0.92541620  0.05389244    -0.20300
C1413       C  0.09247390  0.88748185  0.39562226    -0.21800
C1414       C  0.11116643  0.89401032  0.37249701    -0.09800
C1415       C  0.13733595  0.90539914  0.38102500     0.29100
C1416       C  0.14429420  0.90986716  0.41214035    -0.21800
C1417       C  0.12526299  0.90274729  0.43502779    -0.09800
C1418       C  0.09928242  0.89176054  0.42624631     0.29100
F1419       F  0.08024240  0.88556917  0.44724773    -0.20300
H1420       H  0.07214701  0.87890589  0.39014505     0.17400
H1421       H  0.16448428  0.91854040  0.41837339     0.17400
F1422       F  0.15608372  0.91225899  0.35951517    -0.20300
C1423       C  0.07891943  0.86160496  0.13094929    -0.21800
C1424       C  0.10414446  0.87419956  0.11939066    -0.09800
C1425       C  0.12467649  0.87848128  0.13860489     0.29100
C1426       C  0.12004212  0.87167647  0.16964504    -0.21800
C1427       C  0.09480813  0.86006463  0.18170659    -0.09800
C1428       C  0.07413991  0.85424571  0.16163219     0.29100
F1429       F  0.04939492  0.84299482  0.17190458    -0.20300
H1430       H  0.06293775  0.85835728  0.11637256     0.17400
H1431       H  0.13627664  0.87629716  0.18444555     0.17400
F1432       F  0.14932311  0.89094529  0.12789939    -0.20300
C1433       C  0.52786579  0.18321233  0.19142889    -0.21800
C1434       C  0.51079823  0.18446353  0.17028214    -0.09800
C1435       C  0.51236517  0.17863118  0.13938302     0.29100
C1436       C  0.52981165  0.17057886  0.13029280    -0.21800
C1437       C  0.54554885  0.16773776  0.15190100    -0.09800
C1438       C  0.54478333  0.17454494  0.18245244     0.29100
F1439       F  0.55954314  0.17163070  0.20385178    -0.20300
H1440       H  0.52693640  0.18731692  0.21540735     0.17400
H1441       H  0.52986903  0.16497656  0.10671091     0.17400
F1442       F  0.49641804  0.17979415  0.11821239    -0.20300
C1443       C  0.19947747  0.00813414  0.09326475    -0.21800
C1444       C  0.18395721  0.98199216  0.10121439    -0.09800
C1445       C  0.18043358  0.97494448  0.13230902     0.29100
C1446       C  0.19037416  0.99399922  0.15498334    -0.21800
C1447       C  0.20335144  0.02025189  0.14690546    -0.09800
C1448       C  0.20881638  0.02721482  0.11593128     0.29100
F1449       F  0.22168445  0.05248965  0.10755286    -0.20300
H1450       H  0.20232293  0.01396693  0.06945062     0.17400
H1451       H  0.18585127  0.98828664  0.17874266     0.17400
F1452       F  0.16585958  0.94977159  0.14070468    -0.20300
C1453       C  0.31390981  0.13980304  0.19455413    -0.21800
C1454       C  0.30140841  0.11516477  0.20785714    -0.09800
C1455       C  0.31620228  0.10354492  0.21545977     0.29100
C1456       C  0.34331990  0.11733111  0.21153041    -0.21800
C1457       C  0.35588392  0.14270726  0.19971549    -0.09800
C1458       C  0.34053126  0.15331529  0.19031797     0.29100
F1459       F  0.35116851  0.17714467  0.17737202    -0.20300
H1460       H  0.30297114  0.14898470  0.18776442     0.17400
H1461       H  0.35451587  0.10854265  0.21866826     0.17400
F1462       F  0.30472389  0.07958888  0.22808790    -0.20300
C1463       C  0.13173215  0.96905349  0.28565867    -0.21800
C1464       C  0.11741403  0.95060654  0.26317545    -0.09800
C1465       C  0.11842665  0.95868765  0.23285924     0.29100
C1466       C  0.13400931  0.98476896  0.22503429    -0.21800
C1467       C  0.14956539  0.00313923  0.24710972    -0.09800
C1468       C  0.14798019  0.99508318  0.27769926     0.29100
F1469       F  0.16271899  0.01214688  0.29966470    -0.20300
H1470       H  0.13140041  0.96302706  0.30910548     0.17400
H1471       H  0.13514063  0.99030080  0.20123727     0.17400
F1472       F  0.10500840  0.94118453  0.21065755    -0.20300
C1473       C  0.47304972  0.84509726  0.37631147    -0.21800
C1474       C  0.44979763  0.83805951  0.36121508    -0.09800
C1475       C  0.44090253  0.81868187  0.33868005     0.29100
C1476       C  0.45631692  0.80811471  0.32977789    -0.21800
C1477       C  0.48058829  0.81682829  0.34333576    -0.09800
C1478       C  0.48827400  0.83456502  0.36759846     0.29100
F1479       F  0.51141677  0.84304255  0.38150392    -0.20300
H1480       H  0.48003144  0.85972352  0.39406056     0.17400
H1481       H  0.45030747  0.79482017  0.31064824     0.17400
F1482       F  0.41864269  0.81177069  0.32342737    -0.20300
C1483       C  0.42705966  0.91716721  0.25406947    -0.21800
C1484       C  0.42885353  0.90039280  0.27511131    -0.09800
C1485       C  0.43236476  0.88017101  0.26441328     0.29100
C1486       C  0.43414673  0.87684904  0.23321974    -0.21800
C1487       C  0.43313943  0.89395098  0.21201984    -0.09800
C1488       C  0.42960360  0.91425170  0.22262194     0.29100
F1489       F  0.42817638  0.93089643  0.20268966    -0.20300
H1490       H  0.42412290  0.93270956  0.26202810     0.17400
H1491       H  0.43675390  0.86100206  0.22566661     0.17400
F1492       F  0.43340484  0.86314539  0.28412829    -0.20300
C1493       C  0.47146474  0.89459795  0.50608926    -0.21800
C1494       C  0.46146243  0.90789415  0.02454205    -0.09800
C1495       C  0.44849583  0.91982446  0.01175877     0.29100
C1496       C  0.44209091  0.91433637  0.48033608    -0.21800
C1497       C  0.45052394  0.90065777  0.46208624    -0.09800
C1498       C  0.46541166  0.89094886  0.47497423     0.29100
F1499       F  0.47349808  0.87743570  0.45762140    -0.20300
H1500       H  0.47930783  0.88471338  0.01521633     0.17400
H1501       H  0.43031542  0.92162727  0.47058899     0.17400
F1502       F  0.44039513  0.93304111  0.02963919    -0.20300
C1503       C  0.30200665  0.85422956  0.45540618    -0.21800
C1504       C  0.30925128  0.85542577  0.48614023    -0.09800
C1505       C  0.33551822  0.86776218  0.49379543     0.29100
C1506       C  0.35420205  0.87702584  0.47071061    -0.21800
C1507       C  0.34693337  0.87440297  0.43981320    -0.09800
C1508       C  0.32074689  0.86395162  0.43230418     0.29100
F1509       F  0.31309241  0.86051440  0.40263059    -0.20300
H1510       H  0.28175689  0.84435293  0.44920909     0.17400
H1511       H  0.37428387  0.88469064  0.47684336     0.17400
F1512       F  0.34321587  0.86871970  0.02358202    -0.20300
C1513       C  0.29218628  0.78130032  0.33806281    -0.21800
C1514       C  0.28238224  0.78837784  0.31309977    -0.09800
C1515       C  0.29893937  0.81095767  0.29670341     0.29100
C1516       C  0.32416881  0.82725408  0.30657509    -0.21800
C1517       C  0.33344744  0.82162464  0.33326217    -0.09800
C1518       C  0.31754260  0.79780514  0.34821136     0.29100
F1519       F  0.32574677  0.79122359  0.37378140    -0.20300
H1520       H  0.27969531  0.76396984  0.35097245     0.17400
H1521       H  0.33593332  0.84511545  0.29421663     0.17400
F1522       F  0.29023264  0.81794300  0.27187481    -0.20300
C1523       C  0.63192174  0.15596269  0.37620692    -0.21800
C1524       C  0.61596385  0.16346219  0.39148082    -0.09800
C1525       C  0.62677204  0.18234420  0.41448701     0.29100
C1526       C  0.65263000  0.19213147  0.42334450    -0.21800
C1527       C  0.66818786  0.18336114  0.40932462    -0.09800
C1528       C  0.65771401  0.16586765  0.38471938     0.29100
F1529       F  0.67193589  0.15727556  0.36972526    -0.20300
H1530       H  0.62408325  0.14162372  0.35815831     0.17400
H1531       H  0.65999118  0.20546684  0.44240992     0.17400
F1532       F  0.61184626  0.18975402  0.43005034    -0.20300
C1533       C  0.48109521  0.01280792  0.39672527    -0.21800
C1534       C  0.47108882  0.02828511  0.38625527    -0.09800
C1535       C  0.44596268  0.01595606  0.37379786     0.29100
C1536       C  0.43203928  0.98879403  0.37041002    -0.21800
C1537       C  0.44308654  0.97377746  0.37928384    -0.09800
C1538       C  0.46745342  0.98610988  0.39328486     0.29100
F1539       F  0.47844248  0.97231041  0.40330334    -0.20300
H1540       H  0.50001987  0.02143123  0.40715187     0.17400
H1541       H  0.41324599  0.97967195  0.35962291     0.17400
F1542       F  0.43535219  0.03007123  0.36375338    -0.20300
C1543       C  0.56181970  0.11868037  0.48723780    -0.21800
C1544       C  0.53554536  0.10542528  0.47966288    -0.09800
C1545       C  0.51825317  0.10278027  0.00310936     0.29100
C1546       C  0.52614753  0.10719570  0.03380654    -0.21800
C1547       C  0.55195469  0.11561673  0.04150776    -0.09800
C1548       C  0.56957187  0.11880694  0.01812823     0.29100
F1549       F  0.59465597  0.12664373  0.02437280    -0.20300
H1550       H  0.57658917  0.12534513  0.46962414     0.17400
H1551       H  0.51228015  0.10465138  0.05144042     0.17400
F1552       F  0.49137644  0.08436013  0.49681890    -0.20300
C1553       C  0.54041087  0.08373447  0.24222715    -0.21800
C1554       C  0.56581665  0.09791173  0.23082436    -0.09800
C1555       C  0.58608573  0.11274525  0.25134424     0.29100
C1556       C  0.58073240  0.11467554  0.28197616    -0.21800
C1557       C  0.55533629  0.10141092  0.29292463    -0.09800
C1558       C  0.53520441  0.08526728  0.27319907     0.29100
F1559       F  0.51040883  0.07249291  0.28340339    -0.20300
H1560       H  0.52449573  0.07213730  0.22699644     0.17400
H1561       H  0.59638627  0.12726350  0.29704695     0.17400
F1562       F  0.61094553  0.12676346  0.24158639    -0.20300
C1563       C  0.47860519  0.12286757  0.28462383    -0.21800
C1564       C  0.47435313  0.12589773  0.31559854    -0.09800
C1565       C  0.45748425  0.13505166  0.32334410     0.29100
C1566       C  0.44755650  0.14389793  0.30039726    -0.21800
C1567       C  0.45364412  0.14290198  0.26954998    -0.09800
C1568       C  0.46803881  0.13098165  0.26166944     0.29100
F1569       F  0.47459768  0.13017101  0.23207171    -0.20300
H1570       H  0.49157633  0.11585346  0.27826142     0.17400
H1571       H  0.43669470  0.15328189  0.30681954     0.17400
F1572       F  0.45308072  0.13829962  0.35308136    -0.20300
C1573       C  0.51211243  0.22228118  0.41065631    -0.21800
C1574       C  0.49594527  0.21633178  0.43632755    -0.09800
C1575       C  0.49042993  0.19447161  0.45386134     0.29100
C1576       C  0.49978673  0.17810138  0.44503612    -0.21800
C1577       C  0.51471044  0.18293962  0.41828028    -0.09800
C1578       C  0.52159468  0.20585674  0.40172810     0.29100
F1579       F  0.53613124  0.21164188  0.37590219    -0.20300
H1580       H  0.51636478  0.23893229  0.39670388     0.17400
H1581       H  0.49413453  0.16080929  0.45839920     0.17400
F1582       F  0.47467148  0.18812496  0.47868612    -0.20300
C1583       C  0.50197101  0.34565864  0.39077645    -0.21800
C1584       C  0.50972169  0.33528499  0.41447781    -0.09800
C1585       C  0.53438815  0.35061790  0.42746209     0.29100
C1586       C  0.55033202  0.37634620  0.41775448    -0.21800
C1587       C  0.54167058  0.38706858  0.39534728    -0.09800
C1588       C  0.51763373  0.37118830  0.38137069     0.29100
F1589       F  0.50870834  0.38073793  0.35940277    -0.20300
H1590       H  0.48311034  0.33428291  0.38043304     0.17400
H1591       H  0.56859110  0.38833717  0.42911985     0.17400
F1592       F  0.54208945  0.34155525  0.45127220    -0.20300
C1593       C  0.44878475  0.25040482  0.30727761    -0.21800
C1594       C  0.43040176  0.22694112  0.29413726    -0.09800
C1595       C  0.40933045  0.20907331  0.31183145     0.29100
C1596       C  0.40779972  0.21407779  0.34293221    -0.21800
C1597       C  0.42681052  0.23726490  0.35625122    -0.09800
C1598       C  0.44693445  0.25569769  0.33790107     0.29100
F1599       F  0.46592370  0.27807626  0.35008510    -0.20300
H1600       H  0.46517703  0.26437195  0.29396097     0.17400
H1601       H  0.39213189  0.19968573  0.35674791     0.17400
F1602       F  0.39130812  0.18619242  0.29965232    -0.20300
C1603       C  0.44749654  0.23911986  0.06685966    -0.21800
C1604       C  0.44105435  0.22041861  0.04389080    -0.09800
C1605       C  0.42985885  0.19426690  0.05240535     0.29100
C1606       C  0.42604546  0.18732954  0.08353496    -0.21800
C1607       C  0.43293154  0.20630896  0.10642821    -0.09800
C1608       C  0.44355779  0.23232299  0.09754841     0.29100
F1609       F  0.45097622  0.25158288  0.11846360    -0.20300
H1610       H  0.45578906  0.25939699  0.06112819     0.17400
H1611       H  0.41786477  0.16717489  0.08973094     0.17400
F1612       F  0.42323007  0.17559717  0.03089480    -0.20300
C1613       C  0.15231514  0.00744006  0.47006589    -0.21800
C1614       C  0.14502019  0.00120877  0.00411960    -0.09800
C1615       C  0.15320511  0.02074877  0.02645371     0.29100
C1616       C  0.16332029  0.04659932  0.01781335    -0.21800
C1617       C  0.16564067  0.05216365  0.48183762    -0.09800
C1618       C  0.16193874  0.03302563  0.46049399     0.29100
F1619       F  0.16979782  0.03950494  0.43103530    -0.20300
H1620       H  0.15112784  0.99328393  0.45363019     0.17400
H1621       H  0.17100075  0.06146846  0.03526912     0.17400
F1622       F  0.15352559  0.01516276  0.05649680    -0.20300
C1623       C  0.31752099  0.17494445  0.45726535    -0.21800
C1624       C  0.30394565  0.18805677  0.46350588    -0.09800
C1625       C  0.31814083  0.21499014  0.46855424     0.29100
C1626       C  0.34523825  0.22838460  0.46638123    -0.21800
C1627       C  0.35858800  0.21505294  0.46017740    -0.09800
C1628       C  0.34441727  0.18813698  0.45588080     0.29100
F1629       F  0.35652716  0.17457630  0.44926786    -0.20300
H1630       H  0.30730620  0.15422929  0.45364109     0.17400
H1631       H  0.35581852  0.24911556  0.46985872     0.17400
F1632       F  0.30594699  0.22840822  0.47540336    -0.20300
C1633       C  0.15779341  0.17129023  0.03164677    -0.21800
C1634       C  0.15030228  0.15410596  0.00691187    -0.09800
C1635       C  0.12526448  0.14134583  0.48968820     0.29100
C1636       C  0.11090109  0.15649759  0.00232940    -0.21800
C1637       C  0.11976220  0.17552741  0.02521563    -0.09800
C1638       C  0.14270014  0.18186657  0.04079516     0.29100
F1639       F  0.15122210  0.19940404  0.06390836    -0.20300
H1640       H  0.17623785  0.17781360  0.04268663     0.17400
H1641       H  0.09096838  0.14472716  0.48790232     0.17400
F1642       F  0.11787684  0.12478127  0.46563957    -0.20300
C1643       C  0.25082142  0.13690519  0.07779450    -0.21800
C1644       C  0.23357268  0.14365323  0.06465503    -0.09800
C1645       C  0.21428859  0.14385991  0.08308713     0.29100
C1646       C  0.21128516  0.13574117  0.11344692    -0.21800
C1647       C  0.22787016  0.12808454  0.12621029    -0.09800
C1648       C  0.24826068  0.12953427  0.10857315     0.29100
F1649       F  0.26449571  0.12209099  0.12045331    -0.20300
H1650       H  0.26579846  0.13664949  0.06400347     0.17400
H1651       H  0.19550170  0.13473901  0.12682843     0.17400
F1652       F  0.19710906  0.15006737  0.07124067    -0.20300
C1653       C  0.22888938  0.08549046  0.33406114    -0.21800
C1654       C  0.23275665  0.10469807  0.31258433    -0.09800
C1655       C  0.23526085  0.12813485  0.32316887     0.29100
C1656       C  0.23196246  0.13139103  0.35402635    -0.21800
C1657       C  0.22644636  0.11166391  0.37515370    -0.09800
C1658       C  0.22583350  0.08896930  0.36527912     0.29100
F1659       F  0.22045285  0.06955280  0.38529919    -0.20300
H1660       H  0.22696436  0.06731370  0.32653669     0.17400
H1661       H  0.23290838  0.14920140  0.36137505     0.17400
F1662       F  0.24005554  0.14771786  0.30364193    -0.20300
C1663       C  0.46258673  0.65948335  0.06920940    -0.21800
C1664       C  0.48416828  0.67728832  0.08628368    -0.09800
C1665       C  0.48857479  0.66955541  0.11504644     0.29100
C1666       C  0.47335201  0.64406251  0.12490776    -0.21800
C1667       C  0.45309156  0.62584503  0.10682012    -0.09800
C1668       C  0.44707371  0.63390846  0.07943019     0.29100
F1669       F  0.42775994  0.61658226  0.06131311    -0.20300
H1670       H  0.45876596  0.66481371  0.04697835     0.17400
H1671       H  0.47809697  0.63820992  0.14625251     0.17400
F1672       F  0.50851562  0.68619683  0.13298658    -0.20300
C1673       C  0.29794196  0.52200908  0.07890261    -0.21800
C1674       C  0.28660371  0.50057706  0.05913115    -0.09800
C1675       C  0.30198104  0.49047981  0.04816200     0.29100
C1676       C  0.32722922  0.50017001  0.05849210    -0.21800
C1677       C  0.33804311  0.52013140  0.08024391    -0.09800
C1678       C  0.32343751  0.53172386  0.08947719     0.29100
F1679       F  0.33331024  0.55169532  0.10960397    -0.20300
H1680       H  0.28662903  0.53028386  0.08751169     0.17400
H1681       H  0.33787013  0.49099002  0.05045149     0.17400
F1682       F  0.29227030  0.47042684  0.02811501    -0.20300
C1683       C  0.46825675  0.56081905  0.48276216    -0.21800
C1684       C  0.44813268  0.54643122  0.46238751    -0.09800
C1685       C  0.42452621  0.52643784  0.47334000     0.29100
C1686       C  0.43015446  0.52361375  0.00449142    -0.21800
C1687       C  0.44021149  0.54396803  0.02588366    -0.09800
C1688       C  0.45342305  0.56969171  0.01527208     0.29100
F1689       F  0.46355175  0.59011258  0.03480695    -0.20300
H1690       H  0.48670403  0.57586016  0.47424575     0.17400
H1691       H  0.41995633  0.50369316  0.01211511     0.17400
F1692       F  0.40497242  0.51205263  0.45374620    -0.20300
C1693       C  0.47714443  0.57087537  0.22290191    -0.21800
C1694       C  0.45307403  0.56741863  0.21371778    -0.09800
C1695       C  0.43568566  0.56664350  0.23606934     0.29100
C1696       C  0.44208935  0.56889574  0.26684046    -0.21800
C1697       C  0.46608758  0.57255536  0.27606244    -0.09800
C1698       C  0.48382598  0.57383230  0.25396842     0.29100
F1699       F  0.50709368  0.57708813  0.26246691    -0.20300
H1700       H  0.49076594  0.57143839  0.20605951     0.17400
H1701       H  0.42825648  0.56801794  0.28362025     0.17400
F1702       F  0.41211402  0.56302402  0.22836780    -0.20300
C1703       C  0.63225920  0.46737584  0.13307250    -0.21800
C1704       C  0.61343172  0.45471933  0.15587029    -0.09800
C1705       C  0.62077283  0.45887704  0.18670640     0.29100
C1706       C  0.64646824  0.47586239  0.19459404    -0.21800
C1707       C  0.66508745  0.48986095  0.17194828    -0.09800
C1708       C  0.65786301  0.48518085  0.14100085     0.29100
F1709       F  0.67528409  0.49836623  0.11855787    -0.20300
H1710       H  0.62674267  0.46479119  0.10918540     0.17400
H1711       H  0.65144069  0.47938302  0.21861571     0.17400
F1712       F  0.60284257  0.44741494  0.20919818    -0.20300
C1713       C  0.51902417  0.41504633  0.25311970    -0.21800
C1714       C  0.52353432  0.43536131  0.23322154    -0.09800
C1715       C  0.53386572  0.46053825  0.24528427     0.29100
C1716       C  0.54037680  0.46520715  0.27637832    -0.21800
C1717       C  0.53725475  0.44502645  0.29558146    -0.09800
C1718       C  0.52618973  0.41986458  0.28380335     0.29100
F1719       F  0.52325071  0.40004768  0.30173487    -0.20300
H1720       H  0.51127290  0.39551997  0.24457005     0.17400
H1721       H  0.54928721  0.48481047  0.28502999     0.17400
F1722       F  0.53846062  0.48073327  0.22694525    -0.20300
C1723       C  0.56670398  0.48280436  0.00514737    -0.21800
C1724       C  0.56340595  0.47178554  0.48328575    -0.09800
C1725       C  0.53864592  0.45396382  0.49435834     0.29100
C1726       C  0.55839168  0.43386451  0.02078815    -0.21800
C1727       C  0.55989736  0.45074348  0.04421192    -0.09800
C1728       C  0.56452240  0.47558293  0.03611240     0.29100
F1729       F  0.56610733  0.49254554  0.05788543    -0.20300
H1730       H  0.56983325  0.50177609  0.99925528     0.17400
H1731       H  0.55529052  0.41479799  0.02608649     0.17400
F1732       F  0.51791607  0.44313096  0.47543933    -0.20300
C1733       C  0.44281993  0.31471918  0.04463469    -0.21800
C1734       C  0.45729243  0.32123894  0.01738193    -0.09800
C1735       C  0.47913404  0.34590516  0.01431354     0.29100
C1736       C  0.48758885  0.36299288  0.03885688    -0.21800
C1737       C  0.47454685  0.35583474  0.06696029    -0.09800
C1738       C  0.45144944  0.33201432  0.06949525     0.29100
F1739       F  0.43883358  0.32447362  0.09671125    -0.20300
H1740       H  0.42624837  0.29556192  0.04753251     0.17400
H1741       H  0.50554312  0.38116794  0.03664585     0.17400
F1742       F  0.45438671  0.34873950  0.48755190    -0.20300
C1743       C  0.47847894  0.49510192  0.11047112    -0.21800
C1744       C  0.45369168  0.48583654  0.12292323    -0.09800
C1745       C  0.44113222  0.46106387  0.13634325     0.29100
C1746       C  0.45366271  0.44644972  0.13813203    -0.21800
C1747       C  0.47878147  0.45609263  0.12627243    -0.09800
C1748       C  0.49082988  0.48052994  0.11188515     0.29100
F1749       F  0.51489162  0.49083537  0.09962386    -0.20300
H1750       H  0.48850809  0.51387541  0.09950673     0.17400
H1751       H  0.44389490  0.42780423  0.14938815     0.17400
F1752       F  0.41713598  0.45128590  0.14857108    -0.20300
C1753       C  0.48359703  0.30096895  0.21013836    -0.21800
C1754       C  0.49295243  0.28578501  0.19679989    -0.09800
C1755       C  0.51347249  0.29740523  0.17568537     0.29100
C1756       C  0.52276676  0.32316674  0.16628272    -0.21800
C1757       C  0.51165910  0.33749456  0.17782375    -0.09800
C1758       C  0.49273537  0.32641652  0.20083766     0.29100
F1759       F  0.48207249  0.33978848  0.21332877    -0.20300
H1760       H  0.46811303  0.29263317  0.22687601     0.17400
H1761       H  0.53728966  0.33123936  0.14842213     0.17400
F1762       F  0.52295717  0.28332628  0.16228580    -0.20300
C1763       C  0.21955989  0.51459267  0.34043499    -0.21800
C1764       C  0.21160022  0.49434017  0.31933140    -0.09800
C1765       C  0.18754325  0.48470257  0.30500507     0.29100
C1766       C  0.17129452  0.49452940  0.31237430    -0.21800
C1767       C  0.17839802  0.51390485  0.33470471    -0.09800
C1768       C  0.20307707  0.52423395  0.34829120     0.29100
F1769       F  0.21088660  0.54280449  0.37013574    -0.20300
H1770       H  0.23801152  0.52213396  0.35180531     0.17400
H1771       H  0.15251547  0.48596509  0.30160065     0.17400
F1772       F  0.17941519  0.46511165  0.28443863    -0.20300
C1773       C  0.21045553  0.41209886  0.41158769    -0.21800
C1774       C  0.23544181  0.42791647  0.39969973    -0.09800
C1775       C  0.25495524  0.44577618  0.41923931     0.29100
C1776       C  0.24903935  0.44901238  0.44919608    -0.21800
C1777       C  0.22392354  0.43402828  0.46058436    -0.09800
C1778       C  0.20478865  0.41484859  0.44204908     0.29100
F1779       F  0.18033225  0.40001669  0.45276057    -0.20300
H1780       H  0.19517328  0.39817568  0.39705589     0.17400
H1781       H  0.26400469  0.46373131  0.46339461     0.17400
F1782       F  0.27940224  0.46144344  0.40891310    -0.20300
C1783       C  0.18969531  0.42797332  0.17145666    -0.21800
C1784       C  0.20812977  0.44121257  0.14844361    -0.09800
C1785       C  0.23395351  0.45794024  0.15682912     0.29100
C1786       C  0.24112228  0.46138593  0.18747129    -0.21800
C1787       C  0.22289091  0.44816233  0.21069792    -0.09800
C1788       C  0.19701295  0.43111730  0.20236909     0.29100
F1789       F  0.17882376  0.41746194  0.22391087    -0.20300
H1790       H  0.16971502  0.41496302  0.16546342     0.17400
H1791       H  0.26119781  0.47454221  0.19292554     0.17400
F1792       F  0.25229184  0.47169386  0.13543230    -0.20300
C1793       C  0.31638674  0.45364865  0.21211560    -0.21800
C1794       C  0.32357602  0.46438881  0.24147286    -0.09800
C1795       C  0.34902032  0.48418332  0.24667700     0.29100
C1796       C  0.36626286  0.49477060  0.22227944    -0.21800
C1797       C  0.35835838  0.48594560  0.19229158    -0.09800
C1798       C  0.33376418  0.46428823  0.18753455     0.29100
F1799       F  0.32555993  0.45531877  0.15883688    -0.20300
H1800       H  0.29666236  0.43869668  0.20771713     0.17400
H1801       H  0.38528243  0.51113911  0.22652464     0.17400
F1802       F  0.35642189  0.49487776  0.27491245    -0.20300
C1803       C  0.34261471  0.50454989  0.36948945    -0.21800
C1804       C  0.33116350  0.51325899  0.34822441    -0.09800
C1805       C  0.34501275  0.53914303  0.33821726     0.29100
C1806       C  0.37073191  0.55521943  0.34750244    -0.21800
C1807       C  0.38279434  0.54551084  0.36657588    -0.09800
C1808       C  0.36809887  0.52034818  0.37848623     0.29100
F1809       F  0.37877328  0.51045955  0.39771965    -0.20300
H1810       H  0.33228274  0.48479801  0.37775372     0.17400
H1811       H  0.38171064  0.57453683  0.33810573     0.17400
F1812       F  0.33462416  0.54812659  0.31737637    -0.20300
C1813       C  0.03341086  0.15514598  0.24959207    -0.21800
C1814       C  0.04414659  0.17432264  0.27224012    -0.09800
C1815       C  0.02813479  0.18208508  0.28697398     0.29100
C1816       C  0.00243998  0.17198869  0.27811923    -0.21800
C1817       C  0.99202255  0.15422914  0.25389837    -0.09800
C1818       C  0.00764885  0.14531028  0.24022527     0.29100
F1819       F  0.99862568  0.12823890  0.21667009    -0.20300
H1820       H  0.04539173  0.14893737  0.23787237     0.17400
H1821       H  0.99111850  0.17927314  0.28924975     0.17400
F1822       F  0.03761095  0.20021195  0.30940405    -0.20300
C1823       C  0.19975415  0.35136475  0.26890246    -0.21800
C1824       C  0.21973518  0.36242203  0.29048158    -0.09800
C1825       C  0.22575143  0.34603310  0.30742872     0.29100
C1826       C  0.21102875  0.31907479  0.30383480    -0.21800
C1827       C  0.19006270  0.30814045  0.28353508    -0.09800
C1828       C  0.18509905  0.32464448  0.26541738     0.29100
F1829       F  0.16576800  0.31495402  0.24449085    -0.20300
H1830       H  0.19490546  0.36343566  0.25518160     0.17400
H1831       H  0.21526036  0.30673964  0.31790795     0.17400
F1832       F  0.24480916  0.35587027  0.32865622    -0.20300
C1833       C  0.14936507  0.11562772  0.25346104    -0.21800
C1834       C  0.16526170  0.12232134  0.22740658    -0.09800
C1835       C  0.16968474  0.14410832  0.21034434     0.29100
C1836       C  0.16000600  0.15990408  0.22031596    -0.21800
C1837       C  0.14589444  0.15462264  0.24777806    -0.09800
C1838       C  0.13977999  0.13165550  0.26370382     0.29100
F1839       F  0.12629764  0.12569218  0.29037009    -0.20300
H1840       H  0.14585884  0.09901394  0.26703594     0.17400
H1841       H  0.16480775  0.17715295  0.20726763     0.17400
F1842       F  0.18443502  0.15080039  0.18460401    -0.20300
C1843       C  0.20557951  0.21048449  0.35219096    -0.21800
C1844       C  0.18217293  0.21022398  0.35753644    -0.09800
C1845       C  0.17219642  0.20598191  0.38753632     0.29100
C1846       C  0.18376628  0.19937621  0.41068915    -0.21800
C1847       C  0.20529646  0.19662447  0.40453169    -0.09800
C1848       C  0.21703621  0.20351069  0.37556724     0.29100
F1849       F  0.23784741  0.20090613  0.36905075    -0.20300
H1850       H  0.21377932  0.21390607  0.32937583     0.17400
H1851       H  0.17436029  0.19390810  0.43287893     0.17400
F1852       F  0.15007741  0.20619311  0.39410947    -0.20300
C1853       C  0.14059001  0.22980915  0.13545398    -0.21800
C1854       C  0.12503324  0.23939345  0.12434787    -0.09800
C1855       C  0.11506096  0.25049367  0.14454088     0.29100
C1856       C  0.11951539  0.25077117  0.17585921    -0.21800
C1857       C  0.13433818  0.24037611  0.18728068    -0.09800
C1858       C  0.14561526  0.23064833  0.16676116     0.29100
F1859       F  0.15985152  0.22026140  0.17712054    -0.20300
H1860       H  0.14792460  0.22073281  0.12002801     0.17400
H1861       H  0.11078164  0.25846273  0.19130639     0.17400
F1862       F  0.09945867  0.25929404  0.13415948    -0.20300
C1863       C  0.07900408  0.23118729  0.41666445    -0.21800
C1864       C  0.09994743  0.23882470  0.43667199    -0.09800
C1865       C  0.12450163  0.24606787  0.42455549     0.29100
C1866       C  0.12764893  0.24451843  0.39310309    -0.21800
C1867       C  0.10636658  0.23530188  0.37354858    -0.09800
C1868       C  0.08211251  0.22912053  0.38529569     0.29100
F1869       F  0.06132891  0.22022945  0.36660684    -0.20300
H1870       H  0.05992957  0.22552369  0.42548034     0.17400
H1871       H  0.14645481  0.24928160  0.38414319     0.17400
F1872       F  0.14529363  0.25406882  0.44310340    -0.20300
O1873       O  0.10208897  0.20603762  0.83731157    -0.82300
C1874       C  0.13401979  0.23758552  0.72096293     0.97100
O1875       O  0.11570091  0.23456299  0.73836757    -0.71400
O1876       O  0.08292520  0.21233730  0.78444960    -0.75000
Al1877     Al  0.11777096  0.24008862  0.78113944     1.49000
C1878       C  0.07293376  0.18830541  0.78058472     0.92400
O1879       O  0.12836028  0.17254526  0.78558051    -0.81200
O1880       O  0.17799509  0.22407025  0.80609993    -0.74700
Al1881     Al  0.11670444  0.19231527  0.80845129     1.90100
O1882       O  0.15519181  0.19974902  0.75200619    -0.73800
O1883       O  0.17946288  0.26638653  0.78644741    -0.73700
O1884       O  0.15520368  0.24072023  0.73159192    -0.79300
O1885       O  0.14769005  0.27285561  0.77595919    -0.77500
O1886       O  0.13311605  0.22129059  0.78647338    -1.13700
O1887       O  0.11937473  0.24698739  0.82389608    -0.72800
C1888       C  0.10900620  0.22930886  0.84381885     0.97900
C1889       C  0.14287936  0.17718416  0.76264681     0.94300
Al1890     Al  0.16428844  0.23188637  0.77040832     1.55600
O1891       O  0.08661657  0.17773515  0.78288328    -0.77500
C1892       C  0.17106931  0.28168260  0.78216967     0.98400
C1893       C  0.16813202  0.21422660  0.83177339     0.93300
O1894       O  0.14410206  0.20328676  0.83614241    -0.82800
O1895       O  0.24815106  0.47048523  0.74716564    -0.82300
C1896       C  0.23706917  0.43178735  0.86538369     0.97100
O1897       O  0.21852172  0.42392057  0.84649413    -0.71400
O1898       O  0.21162937  0.45905259  0.82056422    -0.75000
Al1899     Al  0.21744942  0.43334842  0.80438155     1.49000
C1900       C  0.22069903  0.48220871  0.81294094     0.92400
O1901       O  0.28686959  0.50267181  0.81806959    -0.81200
O1902       O  0.28638226  0.44252841  0.77712038    -0.74700
Al1903     Al  0.26608728  0.48441015  0.78359023     1.90100
O1904       O  0.30066353  0.47547472  0.82633803    -0.73800
O1905       O  0.24918123  0.40529229  0.81155128    -0.73700
O1906       O  0.26007395  0.44119688  0.85620170    -0.79300
O1907       O  0.21675845  0.40399666  0.78793654    -0.77500
O1908       O  0.25173373  0.45335048  0.80156622    -1.13700
O1909       O  0.21055965  0.43939561  0.76316465    -0.72800
C1910       C  0.22536431  0.45297640  0.74172158     0.97900
C1911       C  0.30341704  0.49778389  0.82920768     0.94300
Al1912     Al  0.27219737  0.44203916  0.81648744     1.55600
O1913       O  0.24121903  0.49375978  0.79745327    -0.77500
C1914       C  0.22848725  0.39277400  0.79685042     0.98400
C1915       C  0.29772864  0.46283593  0.76107153     0.93300
O1916       O  0.29369845  0.48153998  0.76515184    -0.82800
O1917       O  0.54168910  0.42114018  0.57743138    -0.82300
C1918       C  0.51735119  0.42918319  0.69964425     0.97100
O1919       O  0.53020383  0.44806723  0.68185397    -0.71400
O1920       O  0.57045004  0.44890231  0.65757643    -0.75000
Al1921     Al  0.54206127  0.45001376  0.64043104     1.49000
C1922       C  0.58366591  0.44053603  0.64473891     0.92400
O1923       O  0.53564882  0.37821765  0.64433850    -0.81200
O1924       O  0.47766754  0.38444352  0.60840195    -0.74700
Al1925     Al  0.53858221  0.40101267  0.61180433     1.90100
O1926       O  0.49550276  0.36704274  0.65594496    -0.73800
O1927       O  0.48219655  0.42286890  0.64469785    -0.73700
O1928       O  0.50330287  0.40668693  0.68918728    -0.79300
O1929       O  0.51615673  0.45589698  0.62476025    -0.77500
O1930       O  0.52431845  0.41603603  0.63364657    -1.13700
O1931       O  0.55746037  0.45902385  0.59989102    -0.72800
C1932       C  0.55181412  0.44533711  0.57590456     0.97900
C1933       C  0.51419764  0.36269671  0.65676786     0.94300
Al1934     Al  0.49233156  0.39693208  0.64828320     1.55600
O1935       O  0.57403933  0.42401282  0.62361063    -0.77500
C1936       C  0.49292556  0.44523802  0.63312171     0.98400
C1937       C  0.48498763  0.37204196  0.59156014     0.93300
O1938       O  0.50727751  0.37496373  0.59430692    -0.82800
O1939       O  0.42495811  0.57067998  0.67064249    -0.82300
C1940       C  0.43387774  0.53664251  0.55843812     0.97100
O1941       O  0.44650948  0.55636409  0.57515137    -0.71400
O1942       O  0.45286982  0.59008157  0.61845067    -0.75000
Al1943     Al  0.44818288  0.55611349  0.61809047     1.49000
C1944       C  0.43808814  0.59892237  0.61291574     0.92400
O1945       O  0.36846341  0.54035523  0.61524755    -0.81200
O1946       O  0.37209387  0.49313500  0.64046832    -0.74700
Al1947     Al  0.39856757  0.55430751  0.64037569     1.90100
O1948       O  0.37254990  0.51394025  0.58418404    -0.73800
O1949       O  0.41557850  0.49428611  0.62635460    -0.73700
O1950       O  0.41588320  0.51554191  0.56935481    -0.79300
O1951       O  0.45329788  0.52736091  0.61674293    -0.77500
O1952       O  0.41382213  0.53896940  0.62140784    -1.13700
O1953       O  0.45188782  0.55641548  0.66099435    -0.72800
C1954       C  0.44171456  0.56505000  0.67949354     0.97900
C1955       C  0.36045973  0.52512300  0.59277918     0.94300
Al1956     Al  0.39561604  0.50701304  0.60636080     1.55600
O1957       O  0.41390041  0.58420199  0.61398537    -0.77500
C1958       C  0.43964029  0.50396997  0.62380366     0.98400
C1959       C  0.37020877  0.50309768  0.66519810     0.93300
O1960       O  0.38200864  0.52724107  0.66886101    -0.82800
O1961       O  0.19916869  0.12306569  0.91091657    -0.82300
C1962       C  0.23268077  0.14459454  0.53119767     0.97100
O1963       O  0.23991875  0.13275763  0.51324470    -0.71400
O1964       O  0.20176436  0.09465044  0.98971085    -0.75000
Al1965     Al  0.23034752  0.12374795  0.97193322     1.49000
C1966       C  0.17992632  0.08099626  0.97794339     0.92400
O1967       O  0.16440090  0.12827353  0.98027973    -0.81200
O1968       O  0.22689242  0.18692347  0.94135323    -0.74700
Al1969     Al  0.18326138  0.12588417  0.94632924     1.90100
O1970       O  0.19272469  0.16897656  0.99006371    -0.73800
O1971       O  0.26182410  0.18381001  0.97585392    -0.73700
O1972       O  0.22466013  0.15901331  0.52089777    -0.79300
O1973       O  0.26172524  0.15032029  0.95557459    -0.77500
O1974       O  0.21323510  0.14078007  0.96646644    -1.13700
O1975       O  0.22344514  0.10880601  0.93111729    -0.72800
C1976       C  0.21381395  0.11368865  0.90800717     0.97900
C1977       C  0.17006301  0.14980237  0.99216541     0.94300
Al1978     Al  0.22579113  0.17277086  0.98091475     1.55600
O1979       O  0.17190322  0.09045779  0.95789519    -0.77500
C1980       C  0.27373501  0.17369081  0.96345766     0.98400
C1981       C  0.20674713  0.17946511  0.92558280     0.93300
O1982       O  0.18737424  0.15720188  0.92923908    -0.82800
O1983       O  0.46460047  0.25314307  0.50857420    -0.82300
C1984       C  0.42624340  0.24340342  0.88849854     0.97100
O1985       O  0.41970586  0.22436391  0.90636728    -0.71400
O1986       O  0.45680978  0.22015683  0.93104133    -0.75000
Al1987     Al  0.42890172  0.22235065  0.94812895     1.49000
C1988       C  0.47937121  0.22930329  0.94091368     0.92400
O1989       O  0.49537074  0.29317304  0.93783154    -0.81200
O1990       O  0.43343701  0.28893898  0.97959720    -0.74700
Al1991     Al  0.47728896  0.27170782  0.97199953     1.90100
O1992       O  0.46703325  0.30581635  0.93033196    -0.73800
O1993       O  0.39791557  0.25152093  0.94371375    -0.73700
O1994       O  0.43426776  0.26591217  0.89873639    -0.79300
O1995       O  0.39769952  0.21822944  0.96398372    -0.77500
O1996       O  0.44671787  0.25657898  0.95305849    -1.13700
O1997       O  0.43502549  0.21463857  0.98940976    -0.72800
C1998       C  0.44856450  0.22966209  0.51305039     0.97900
C1999       C  0.48961898  0.30932356  0.92715541     0.94300
Al2000     Al  0.43412515  0.27626501  0.93934096     1.55600
O2001       O  0.48853389  0.24805594  0.95922952    -0.77500
C2002       C  0.38570019  0.22937433  0.95556298     0.98400
C2003       C  0.45395470  0.30144554  0.99495341     0.93300
O2004       O  0.47321512  0.29850357  0.99022012    -0.82800
O2005       O  0.51577373  0.13585050  0.83232630    -0.82300
C2006       C  0.52944574  0.10360386  0.94688108     0.97100
O2007       O  0.50781799  0.10049276  0.93810374    -0.71400
O2008       O  0.51021410  0.14324330  0.91881469    -0.75000
Al2009     Al  0.49813563  0.11021141  0.90027244     1.49000
C2010       C  0.52060455  0.16458770  0.90499744     0.92400
O2011       O  0.57536287  0.16168672  0.88311675    -0.81200
O2012       O  0.53940543  0.09182198  0.84278794    -0.74700
Al2013     Al  0.54428200  0.14725604  0.85870136     1.90100
O2014       O  0.57734076  0.12606867  0.88110897    -0.73800
O2015       O  0.51180288  0.06736282  0.89178115    -0.73700
O2016       O  0.54623492  0.10550287  0.92774064    -0.79300
O2017       O  0.48052751  0.07538994  0.88453338    -0.77500
O2018       O  0.52804298  0.11896067  0.88163888    -1.13700
O2019       O  0.48395873  0.11919195  0.86603277    -0.72800
C2020       C  0.49241816  0.12751257  0.83937469     0.97900
C2021       C  0.58832783  0.15020331  0.88487766     0.94300
Al2022     Al  0.54234999  0.09923345  0.88559956     1.55600
O2023       O  0.53350997  0.16771148  0.88097331    -0.77500
C2024       C  0.48830765  0.05939586  0.88720244     0.98400
C2025       C  0.55075177  0.10967786  0.82325931     0.93300
O2026       O  0.55778831  0.13290427  0.82986937    -0.82800
O2027       O  0.37998761  0.87048212  0.92188779    -0.82300
C2028       C  0.42601027  0.90563234  0.80817435     0.97100
O2029       O  0.40842691  0.90990743  0.81802566    -0.71400
O2030       O  0.36760000  0.86721701  0.83643620    -0.75000
Al2031     Al  0.38900445  0.89926351  0.85603872     1.49000
C2032       C  0.35679412  0.84479624  0.84767840     0.92400
O2033       O  0.41367784  0.84589009  0.86911986    -0.81200
O2034       O  0.44802237  0.91487926  0.91104009    -0.74700
Al2035     Al  0.39714437  0.85995072  0.89448294     1.90100
O2036       O  0.45136345  0.88104537  0.87173132    -0.73800
O2037       O  0.44577832  0.94086041  0.86386458    -0.73700
O2038       O  0.44076769  0.90260419  0.82621297    -0.79300
O2039       O  0.40686605  0.93335153  0.87335773    -0.77500
O2040       O  0.40960502  0.88906435  0.87290000    -1.13700
O2041       O  0.36597729  0.88970668  0.89067438    -0.72800
C2042       C  0.36576019  0.88000164  0.91649994     0.97900
C2043       C  0.43803293  0.85699283  0.86754029     0.94300
Al2044     Al  0.44362033  0.90830282  0.86845518     1.55600
O2045       O  0.36614087  0.84023250  0.87109755    -0.77500
C2046       C  0.43074262  0.94889601  0.87142195     0.98400
C2047       C  0.44076745  0.89700547  0.93059869     0.93300
O2048       O  0.42488316  0.87370242  0.92380702    -0.82800
O2049       O  0.19700974  0.05509351  0.66365498    -0.82300
C2050       C  0.22668766  0.09772105  0.78099400     0.97100
O2051       O  0.22925221  0.07905063  0.77123405    -0.71400
O2052       O  0.18760016  0.03881731  0.74946674    -0.75000
Al2053     Al  0.22100873  0.06113758  0.73234659     1.49000
C2054       C  0.16651625  0.02783030  0.73519727     0.92400
O2055       O  0.16808984  0.08518017  0.71658189    -0.81200
O2056       O  0.23862624  0.12218068  0.67785880    -0.74700
Al2057     Al  0.18399359  0.07038667  0.69102827     1.90100
O2058       O  0.20292001  0.12344324  0.71690996    -0.73800
O2059       O  0.26294914  0.11841422  0.72596058    -0.73700
O2060       O  0.22413264  0.11264572  0.76266768    -0.79300
O2061       O  0.25651454  0.07974208  0.71799758    -0.77500
O2062       O  0.21183172  0.08233173  0.71476989    -1.13700
O2063       O  0.21357828  0.03949618  0.69675301    -0.72800
C2064       C  0.20588453  0.04039014  0.67001844     0.97900
C2065       C  0.17880789  0.10944039  0.72022791     0.94300
Al2066     Al  0.23061308  0.11624962  0.72041502     1.55600
O2067       O  0.16369060  0.03799139  0.71139749    -0.77500
C2068       C  0.27188331  0.10365952  0.72104436     0.98400
C2069       C  0.22134857  0.11582141  0.65775982     0.93300
O2070       O  0.19804524  0.09944222  0.66361518    -0.82800
O2071       O  0.46061960  0.18724784  0.75432906    -0.82300
C2072       C  0.42746076  0.19868814  0.63974692     0.97100
O2073       O  0.42349886  0.17685926  0.64907719    -0.71400
O2074       O  0.46623917  0.17896878  0.66782407    -0.75000
Al2075     Al  0.43356127  0.16796545  0.68721117     1.49000
C2076       C  0.48809815  0.18989023  0.68042633     0.92400
O2077       O  0.48665198  0.24521808  0.70059185    -0.81200
O2078       O  0.41781864  0.21234739  0.74322871    -0.74700
Al2079     Al  0.47205929  0.21504173  0.72663131     1.90100
O2080       O  0.45178162  0.24850736  0.70241730    -0.73800
O2081       O  0.39147325  0.18299336  0.69711187    -0.73700
O2082       O  0.42908728  0.21566034  0.65827130    -0.79300
O2083       O  0.39889351  0.15121688  0.70400524    -0.77500
O2084       O  0.44322218  0.19857949  0.70469718    -1.13700
O2085       O  0.44296221  0.15457545  0.72186408    -0.72800
C2086       C  0.45207446  0.16371956  0.74802226     0.97900
C2087       C  0.47578549  0.25865957  0.69783297     0.94300
Al2088     Al  0.42403065  0.21346941  0.70046349     1.55600
O2089       O  0.49169642  0.20306475  0.70433590    -0.77500
C2090       C  0.38332695  0.15968309  0.70354498     0.98400
C2091       C  0.43584903  0.22376812  0.76231353     0.93300
O2092       O  0.45889425  0.23025163  0.75534735    -0.82800
O2093       O  0.14726144  0.95010614  0.58473420    -0.82300
C2094       C  0.13090592  0.90778069  0.96630998     0.97100
O2095       O  0.15286406  0.92501433  0.97605180    -0.71400
O2096       O  0.15020386  0.96453892  0.99848737    -0.75000
Al2097     Al  0.16353404  0.94301523  0.51566607     1.49000
C2098       C  0.14138297  0.97519896  0.51219767     0.92400
O2099       O  0.08710269  0.91929580  0.53508738    -0.81200
O2100       O  0.12143649  0.88220850  0.57083252    -0.74700
Al2101     Al  0.11839789  0.93434972  0.55882282     1.90100
O2102       O  0.08370438  0.88106715  0.53419863    -0.73800
O2103       O  0.14859133  0.88638991  0.52125324    -0.73700
O2104       O  0.11351182  0.89245336  0.98450891    -0.79300
O2105       O  0.18041617  0.92501905  0.53094614    -0.77500
O2106       O  0.13361306  0.92211258  0.53433291    -1.13700
O2107       O  0.17828480  0.96619386  0.55011962    -0.72800
C2108       C  0.17037008  0.96548099  0.57725450     0.97900
C2109       C  0.07348397  0.89506926  0.53190886     0.94300
Al2110     Al  0.11839745  0.88825972  0.52867995     1.55600
O2111       O  0.12957239  0.96610434  0.53711503    -0.77500
C2112       C  0.17205392  0.90121018  0.52714273     0.98400
C2113       C  0.11098513  0.88861074  0.59166016     0.93300
O2114       O  0.10461626  0.90562545  0.58696342    -0.82800
O2115       O  0.27557608  0.81785102  0.00239630    -0.82300
C2116       C  0.22601230  0.80541717  0.61424851     0.97100
O2117       O  0.24381139  0.82727104  0.60490550    -0.71400
O2118       O  0.28431746  0.82375225  0.58996667    -0.75000
Al2119     Al  0.26478280  0.83540870  0.56823834     1.49000
C2120       C  0.29648180  0.81352442  0.57870898     0.92400
O2121       O  0.24121418  0.75848315  0.55618527    -0.81200
O2122       O  0.20732820  0.79178315  0.51065627    -0.74700
Al2123     Al  0.25776847  0.78836069  0.53023580     1.90100
O2124       O  0.20310619  0.75502480  0.55176037    -0.73800
O2125       O  0.20876046  0.82112635  0.55597079    -0.73700
O2126       O  0.21179556  0.78778300  0.59579721    -0.79300
O2127       O  0.24842931  0.85208468  0.54884003    -0.77500
O2128       O  0.24456534  0.80486683  0.55070388    -1.13700
O2129       O  0.28946250  0.84846741  0.53508862    -0.72800
C2130       C  0.28985017  0.83936572  0.50899703     0.97900
C2131       C  0.21687153  0.74493143  0.55739948     0.94300
Al2132     Al  0.21047910  0.79021571  0.55345480     1.55600
O2133       O  0.28852739  0.80042037  0.55444101    -0.77500
C2134       C  0.22459033  0.84415406  0.54884140     0.98400
C2135       C  0.21534065  0.78320009  0.99156440     0.93300
O2136       O  0.23118343  0.77599049  0.99923707    -0.82800
O2137       O  0.22251923  0.76159068  0.74925512    -0.82300
C2138       C  0.19244421  0.76799272  0.86382740     0.97100
O2139       O  0.21013676  0.78171337  0.84504176    -0.71400
O2140       O  0.24241782  0.79050137  0.79992885    -0.75000
Al2141     Al  0.20737711  0.78284004  0.80283894     1.49000
C2142       C  0.25279789  0.77718706  0.80622572     0.92400
O2143       O  0.19820152  0.70527481  0.80536951    -0.81200
O2144       O  0.14784181  0.70450162  0.78424275    -0.74700
Al2145     Al  0.20899329  0.73518935  0.78018123     1.90100
O2146       O  0.17209161  0.70724260  0.83884526    -0.73800
O2147       O  0.14537054  0.74617499  0.79981848    -0.73700
O2148       O  0.17095038  0.74919594  0.85500011    -0.79300
O2149       O  0.17712302  0.78518951  0.80711434    -0.77500
O2150       O  0.19242375  0.74851364  0.80039168    -1.13700
O2151       O  0.20538762  0.78594145  0.76009022    -0.72800
C2152       C  0.21529055  0.77737186  0.74110696     0.97900
C2153       C  0.18418827  0.69645669  0.82884030     0.94300
Al2154     Al  0.16169838  0.72851684  0.81795333     1.55600
O2155       O  0.23953514  0.75279551  0.80532656    -0.77500
C2156       C  0.15359304  0.77005326  0.80226541     0.98400
C2157       C  0.15729086  0.70320502  0.75873772     0.93300
O2158       O  0.18114729  0.71665782  0.75329097    -0.82800
O2159       O  0.07693645  0.88220929  0.83496934    -0.82300
C2160       C  0.08851843  0.85488458  0.71620177     0.97100
O2161       O  0.10686974  0.86598970  0.73520241    -0.71400
O2162       O  0.11093968  0.90791210  0.75937857    -0.75000
Al2163     Al  0.10773378  0.87730854  0.77679350     1.49000
C2164       C  0.10109606  0.92115662  0.76822723     0.92400
O2165       O  0.03619938  0.87319934  0.76574871    -0.81200
O2166       O  0.04026370  0.81530845  0.80482565    -0.74700
Al2167     Al  0.05812044  0.87695863  0.79934880     1.90100
O2168       O  0.02447775  0.83282005  0.75634129    -0.73800
O2169       O  0.07815612  0.81746042  0.77029257    -0.73700
O2170       O  0.06549054  0.84104518  0.72530178    -0.79300
O2171       O  0.11015743  0.84938721  0.79387820    -0.77500
O2172       O  0.07337539  0.86145060  0.78048878    -1.13700
O2173       O  0.11510274  0.89177424  0.81760262    -0.72800
C2174       C  0.10047317  0.89018146  0.83950217     0.97900
C2175       C  0.02033925  0.85153181  0.75451854     0.94300
Al2176     Al  0.05386365  0.82947423  0.76543589     1.55600
O2177       O  0.08151684  0.91144619  0.78543286    -0.77500
C2178       C  0.09869812  0.82615166  0.78545120     0.98400
C2179       C  0.02960438  0.82402273  0.82251868     0.93300
O2180       O  0.03213509  0.84614862  0.81848149    -0.82800
O2181       O  0.86283024  0.44377820  0.57825550    -0.82300
C2182       C  0.89831364  0.47262208  0.69246775     0.97100
O2183       O  0.89387092  0.45456633  0.67396420    -0.71400
O2184       O  0.87010991  0.42277965  0.62858701    -0.75000
Al2185     Al  0.89849141  0.45699587  0.63174000     1.49000
C2186       C  0.84659349  0.41345153  0.63498018     0.92400
O2187       O  0.83339516  0.47058712  0.63415060    -0.81200
O2188       O  0.88584328  0.52011162  0.61085788    -0.74700
Al2189     Al  0.85106043  0.45842446  0.60900306     1.90100
O2190       O  0.86243433  0.49781976  0.66571484    -0.73800
O2191       O  0.92776529  0.51916978  0.62812150    -0.73700
O2192       O  0.90295533  0.49478944  0.68327612    -0.79300
O2193       O  0.93173522  0.48555218  0.63625937    -0.77500
O2194       O  0.88100528  0.47387344  0.62881851    -1.13700
O2195       O  0.90395734  0.45872194  0.58899012    -0.72800
C2196       C  0.88551703  0.44965644  0.57007991     0.97900
C2197       C  0.83940339  0.48565781  0.65661648     0.94300
Al2198     Al  0.89368483  0.50525977  0.64554049     1.55600
O2199       O  0.83660513  0.42775497  0.63436536    -0.77500
C2200       C  0.94190684  0.50925919  0.63112113     0.98400
C2201       C  0.87414699  0.51041453  0.58599453     0.93300
O2202       O  0.86153221  0.48630257  0.58195321    -0.82800
O2203       O  0.13171735  0.57319382  0.67301649    -0.82300
C2204       C  0.09494543  0.56568864  0.55819169     0.97100
O2205       O  0.09925790  0.55225380  0.57697390    -0.71400
O2206       O  0.12437333  0.54528165  0.62145964    -0.75000
Al2207     Al  0.09561153  0.55091954  0.61949520     1.49000
C2208       C  0.14815796  0.55963633  0.61608288     0.92400
O2209       O  0.16109208  0.63041268  0.61840010    -0.81200
O2210       O  0.11079583  0.62832591  0.63816963    -0.74700
Al2211     Al  0.14321329  0.59981657  0.64269124     1.90100
O2212       O  0.13321779  0.62635036  0.58375279    -0.73800
O2213       O  0.06815325  0.58599357  0.62184690    -0.73700
O2214       O  0.09157912  0.58404751  0.56724605    -0.79300
O2215       O  0.06231748  0.54719052  0.61660315    -0.77500
O2216       O  0.11356845  0.58529976  0.62210361    -1.13700
O2217       O  0.09066284  0.54718472  0.66244740    -0.72800
C2218       C  0.10908584  0.55656208  0.68129638     0.97900
C2219       C  0.15552661  0.63872898  0.59487778     0.94300
Al2220     Al  0.10190314  0.60445651  0.60431543     1.55600
O2221       O  0.15817745  0.58395675  0.61742673    -0.77500
C2222       C  0.05333044  0.56193630  0.62134220     0.98400
C2223       C  0.12097577  0.62966611  0.66399797     0.93300
O2224       O  0.13174835  0.61660319  0.66978113    -0.82800
O2225       O  0.78209983  0.53678242  0.50426149    -0.82300
C2226       C  0.80315355  0.57127841  0.88642487     0.97100
O2227       O  0.79237131  0.57885235  0.90561014    -0.71400
O2228       O  0.75140400  0.54201940  0.93125915    -0.75000
Al2229     Al  0.78196471  0.56939834  0.94754663     1.49000
C2230       C  0.73789683  0.51937626  0.94104048     0.92400
O2231       O  0.78443631  0.50156386  0.93741026    -0.81200
O2232       O  0.84413448  0.56385886  0.97382598    -0.74700
Al2233     Al  0.78237972  0.52059894  0.97112719     1.90100
O2234       O  0.82486726  0.52910710  0.92630576    -0.73800
O2235       O  0.84137131  0.59902316  0.93878929    -0.73700
O2236       O  0.81674691  0.56174617  0.89522107    -0.79300
O2237       O  0.80994401  0.59986391  0.96311459    -0.77500
O2238       O  0.79767658  0.55080487  0.95119013    -1.13700
O2239       O  0.76866313  0.56343521  0.98886852    -0.72800
C2240       C  0.77370923  0.55204833  0.50916039     0.97900
C2241       C  0.80546916  0.50661444  0.92488523     0.94300
Al2242     Al  0.82912468  0.56246190  0.93496097     1.55600
O2243       O  0.74736152  0.50975007  0.95893958    -0.77500
C2244       C  0.83247846  0.61150280  0.95252472     0.98400
C2245       C  0.83596384  0.54489199  0.99197042     0.93300
O2246       O  0.81377824  0.52517932  0.98878505    -0.82800
O2247       O  0.91175132  0.80203897  0.90552633    -0.82300
C2248       C  0.90266159  0.76683467  0.52622419     0.97100
O2249       O  0.88447114  0.75992413  0.50699442    -0.71400
O2250       O  0.87560833  0.79323221  0.97757833    -0.75000
Al2251     Al  0.88008809  0.76613648  0.96335618     1.49000
C2252       C  0.88606928  0.81656332  0.97019593     0.92400
O2253       O  0.95182067  0.83362268  0.97624430    -0.81200
O2254       O  0.94704161  0.77094568  0.93619297    -0.74700
Al2255     Al  0.93030559  0.81569286  0.94180947     1.90100
O2256       O  0.96357761  0.80487435  0.98417496    -0.73800
O2257       O  0.90961600  0.73595739  0.97222977    -0.73700
O2258       O  0.92579568  0.77550848  0.51770347    -0.79300
O2259       O  0.87725132  0.73508178  0.94906858    -0.77500
O2260       O  0.91451930  0.78475753  0.96023003    -1.13700
O2261       O  0.87393019  0.77139228  0.92186838    -0.72800
C2262       C  0.88884051  0.78462699  0.90035181     0.97900
C2263       C  0.96754160  0.82756397  0.98742008     0.94300
Al2264     Al  0.93384117  0.77228028  0.97554106     1.55600
O2265       O  0.90700436  0.82721127  0.95541955    -0.77500
C2266       C  0.88828243  0.72344097  0.95893928     0.98400
C2267       C  0.95945155  0.79101184  0.91994423     0.93300
O2268       O  0.95673090  0.81061137  0.92351137    -0.82800
O2269       O  0.84458831  0.80026538  0.66313626    -0.82300
C2270       C  0.85595694  0.76332201  0.77471373     0.97100
O2271       O  0.83432969  0.76036209  0.76625770    -0.71400
O2272       O  0.83664397  0.80324395  0.74926351    -0.75000
Al2273     Al  0.82517072  0.77126605  0.72904843     1.49000
C2274       C  0.84818550  0.82572562  0.73832390     0.92400
O2275       O  0.90263847  0.82384155  0.71522550    -0.81200
O2276       O  0.86825411  0.75617431  0.67022704    -0.74700
Al2277     Al  0.87232701  0.81053055  0.68999925     1.90100
O2278       O  0.90505927  0.78855203  0.71127028    -0.73800
O2279       O  0.83903567  0.72869436  0.71597968    -0.73700
O2280       O  0.87253086  0.76494799  0.75552108    -0.79300
O2281       O  0.80774273  0.73715024  0.71188234    -0.77500
O2282       O  0.85554541  0.78097051  0.71084859    -1.13700
O2283       O  0.81157843  0.78121505  0.69507747    -0.72800
C2284       C  0.82084889  0.79047647  0.66895935     0.97900
C2285       C  0.91575009  0.81254535  0.71636624     0.94300
Al2286     Al  0.86985857  0.76112573  0.71320729     1.55600
O2287       O  0.86130445  0.83019238  0.71416576    -0.77500
C2288       C  0.81565915  0.72121860  0.71103195     0.98400
C2289       C  0.87998240  0.77478226  0.65184541     0.93300
O2290       O  0.88671101  0.79769818  0.65978148    -0.82800
O2291       O  0.71253831  0.53480218  0.75272550    -0.82300
C2292       C  0.75744968  0.56587397  0.63687207     0.97100
O2293       O  0.73856698  0.56850428  0.64565777    -0.71400
O2294       O  0.69913395  0.52569754  0.66633788    -0.75000
Al2295     Al  0.71947971  0.55917644  0.68398984     1.49000
C2296       C  0.68877947  0.50444470  0.68033598     0.92400
O2297       O  0.74666083  0.50923596  0.70154440    -0.81200
O2298       O  0.77964013  0.57948412  0.74065643    -0.74700
Al2299     Al  0.72984605  0.52342414  0.72625994     1.90100
O2300       O  0.78407505  0.54502676  0.70285850    -0.73800
O2301       O  0.77552325  0.60277407  0.69145430    -0.73700
O2302       O  0.77259529  0.56462976  0.65600931    -0.79300
O2303       O  0.73611092  0.59449513  0.69860887    -0.77500
O2304       O  0.74119275  0.55131645  0.70269833    -1.13700
O2305       O  0.69663377  0.55045703  0.71882055    -0.72800
C2306       C  0.69728624  0.54285659  0.74572861     0.97900
C2307       C  0.77101801  0.52093314  0.69878582     0.94300
Al2308     Al  0.77506720  0.57140737  0.69807991     1.55600
O2309       O  0.69854888  0.50205897  0.70469119    -0.77500
C2310       C  0.75980546  0.61063811  0.69553501     0.98400
C2311       C  0.77373126  0.56209213  0.76062072     0.93300
O2312       O  0.75801373  0.53861364  0.75466669    -0.82800
O2313       O  0.60697150  0.48653657  0.83213290    -0.82300
C2314       C  0.56495099  0.47174902  0.94919598     0.97100
O2315       O  0.58141738  0.49407940  0.93948583    -0.71400
O2316       O  0.62179265  0.49225198  0.91871645    -0.75000
Al2317     Al  0.60009690  0.50361049  0.90082174     1.49000
C2318       C  0.63305860  0.48227296  0.90455086     0.92400
O2319       O  0.57730330  0.42710397  0.88342165    -0.81200
O2320       O  0.53897508  0.45975473  0.84635366    -0.74700
Al2321     Al  0.59179364  0.45803918  0.85881272     1.90100
O2322       O  0.53883642  0.42307160  0.88430295    -0.73800
O2323       O  0.54316127  0.48776222  0.89550319    -0.73700
O2324       O  0.54998126  0.45423634  0.93095431    -0.79300
O2325       O  0.58149091  0.51988651  0.88534707    -0.77500
O2326       O  0.57936182  0.47329569  0.88285119    -1.13700
O2327       O  0.62294728  0.51810879  0.86596757    -0.72800
C2328       C  0.62236621  0.50975402  0.83911879     0.97900
C2329       C  0.55311511  0.41319212  0.88671701     0.94300
Al2330     Al  0.54551827  0.45764301  0.88891504     1.55600
O2331       O  0.62376880  0.47006558  0.87998844    -0.77500
C2332       C  0.55762417  0.51124966  0.88914930     0.98400
C2333       C  0.54559696  0.44907554  0.82593818     0.93300
O2334       O  0.56298369  0.44335031  0.83115290    -0.82800
O2335       O  0.48153987  0.62200148  0.92055833    -0.82300
C2336       C  0.46572554  0.57387666  0.80721339     0.97100
O2337       O  0.48782363  0.59109616  0.81635732    -0.71400
O2338       O  0.48698649  0.63293409  0.83392234    -0.75000
Al2339     Al  0.49772515  0.61125099  0.85333397     1.49000
C2340       C  0.47676406  0.64459956  0.84674019     0.92400
O2341       O  0.42065317  0.58916772  0.87125191    -0.81200
O2342       O  0.45385273  0.55248609  0.91040553    -0.74700
Al2343     Al  0.45244834  0.60514687  0.89470863     1.90100
O2344       O  0.41705866  0.55092999  0.87243233    -0.73800
O2345       O  0.48115906  0.55420575  0.86228470    -0.73700
O2346       O  0.44785783  0.56002155  0.82576421    -0.79300
O2347       O  0.51355283  0.59288907  0.87039301    -0.77500
O2348       O  0.46734072  0.59148734  0.87192657    -1.13700
O2349       O  0.51282200  0.63514370  0.88647574    -0.72800
C2350       C  0.50492193  0.63600298  0.91305602     0.97900
C2351       C  0.40683505  0.56481838  0.86934620     0.94300
Al2352     Al  0.45136651  0.55726923  0.86790835     1.55600
O2353       O  0.46388819  0.63578277  0.87104499    -0.77500
C2354       C  0.50447529  0.56880302  0.86907448     0.98400
C2355       C  0.44555254  0.56157631  0.93077242     0.93300
O2356       O  0.43887999  0.57807158  0.92435069    -0.82800
O2357       O  0.53123615  0.72497081  0.99817470    -0.82300
C2358       C  0.56442910  0.77326213  0.61420648     0.97100
O2359       O  0.56840787  0.75534086  0.60509122    -0.71400
O2360       O  0.52603366  0.71470950  0.58695857    -0.75000
Al2361     Al  0.55843889  0.73541190  0.56780323     1.49000
C2362       C  0.50400521  0.70340455  0.57487871     0.92400
O2363       O  0.50518082  0.75901062  0.55017211    -0.81200
O2364       O  0.57511287  0.79398610  0.51052385    -0.74700
Al2365     Al  0.52025306  0.74261567  0.52640620     1.90100
O2366       O  0.54013491  0.79696742  0.54847169    -0.73800
O2367       O  0.60002365  0.79191831  0.55925858    -0.73700
O2368       O  0.56124101  0.78744880  0.59532644    -0.79300
O2369       O  0.59282978  0.75293973  0.55119511    -0.77500
O2370       O  0.54868254  0.75566360  0.54918132    -1.13700
O2371       O  0.54959776  0.71172777  0.53443094    -0.72800
C2372       C  0.54121778  0.71125314  0.50779493     0.97900
C2373       C  0.51602815  0.78335648  0.55204649     0.94300
Al2374     Al  0.56761342  0.78973660  0.55310184     1.55600
O2375       O  0.50013719  0.71181759  0.55017271    -0.77500
C2376       C  0.60845355  0.77675224  0.55408286     0.98400
C2377       C  0.55754400  0.78686656  0.99019172     0.93300
O2378       O  0.53419272  0.76974580  0.99521749    -0.82800
O2379       O  0.79654513  0.85165973  0.58096078    -0.82300
C2380       C  0.76166783  0.86923635  0.97138473     0.97100
O2381       O  0.75644224  0.84698344  0.98078789    -0.71400
O2382       O  0.79831665  0.84650543  0.99795493    -0.75000
Al2383     Al  0.76654916  0.83390364  0.51587466     1.49000
C2384       C  0.82046932  0.85419921  0.50504368     0.92400
O2385       O  0.82326849  0.91043350  0.52916811    -0.81200
O2386       O  0.75592058  0.88083530  0.57350609    -0.74700
Al2387     Al  0.80813992  0.87983305  0.55403540     1.90100
O2388       O  0.78970851  0.91578469  0.53248951    -0.73800
O2389       O  0.72747933  0.85212199  0.52797889    -0.73700
O2390       O  0.76703652  0.88749076  0.98989781    -0.79300
O2391       O  0.73327363  0.81923428  0.53496708    -0.77500
O2392       O  0.77856435  0.86491940  0.53344900    -1.13700
O2393       O  0.77601259  0.81922602  0.54892866    -0.72800
C2394       C  0.78581042  0.82791156  0.57485953     0.97900
C2395       C  0.81351471  0.92489992  0.52784648     0.94300
Al2396     Al  0.76090184  0.88159814  0.53052598     1.55600
O2397       O  0.82577756  0.86738761  0.52915980    -0.77500
C2398       C  0.71867447  0.82878797  0.53496521     0.98400
C2399       C  0.77428071  0.88953968  0.59246254     0.93300
O2400       O  0.79678177  0.89493837  0.58440281    -0.82800
O2401       O  0.94858522  0.15300431  0.66517848    -0.82300
C2402       C  0.89983358  0.13785094  0.77668191     0.97100
O2403       O  0.91605877  0.16045359  0.76757704    -0.71400
O2404       O  0.95778253  0.16017794  0.75071438    -0.75000
Al2405     Al  0.93641151  0.17050104  0.73061909     1.49000
C2406       C  0.96900241  0.14875813  0.74001365     0.92400
O2407       O  0.91386824  0.09311497  0.71520647    -0.81200
O2408       O  0.87907966  0.12731661  0.67319748    -0.74700
Al2409     Al  0.93069826  0.12441008  0.69113284     1.90100
O2410       O  0.87576932  0.08933459  0.71100388    -0.73800
O2411       O  0.87981979  0.15396179  0.72221522    -0.73700
O2412       O  0.88547129  0.12029195  0.75807508    -0.79300
O2413       O  0.91809903  0.18629058  0.71298507    -0.77500
O2414       O  0.91700812  0.13995637  0.71248808    -1.13700
O2415       O  0.96039345  0.18528660  0.69758940    -0.72800
C2416       C  0.96198096  0.17662280  0.67180987     0.97900
C2417       C  0.88955629  0.07925179  0.71603140     0.94300
Al2418     Al  0.88287326  0.12419018  0.71593614     1.55600
O2419       O  0.96064827  0.13530290  0.71609148    -0.77500
C2420       C  0.89421131  0.17753721  0.71638985     0.98400
C2421       C  0.88716363  0.11727279  0.65367479     0.93300
O2422       O  0.90400869  0.11110741  0.66061694    -0.82800
O2423       O  0.81732549  0.28846989  0.75138518    -0.82300
C2424       C  0.80204944  0.24108678  0.63730751     0.97100
O2425       O  0.82419211  0.25803469  0.64674129    -0.71400
O2426       O  0.82344264  0.29942206  0.66555261    -0.75000
Al2427     Al  0.83398584  0.27764927  0.68442115     1.49000
C2428       C  0.81214392  0.31049269  0.67710188     0.92400
O2429       O  0.75671322  0.25543844  0.70227650    -0.81200
O2430       O  0.78934754  0.21806493  0.74038505    -0.74700
Al2431     Al  0.78842153  0.27139224  0.72554957     1.90100
O2432       O  0.75296582  0.21717554  0.70244258    -0.73800
O2433       O  0.81720570  0.22043740  0.69245481    -0.73700
O2434       O  0.78417345  0.22700600  0.65575582    -0.79300
O2435       O  0.84966187  0.25900732  0.70093884    -0.77500
O2436       O  0.80345090  0.25780932  0.70270633    -1.13700
O2437       O  0.84907253  0.30113794  0.71809370    -0.72800
C2438       C  0.84083745  0.30213848  0.74443950     0.97900
C2439       C  0.74286106  0.23119542  0.69978846     0.94300
Al2440     Al  0.78736718  0.22360547  0.69800022     1.55600
O2441       O  0.79928312  0.30196863  0.70149063    -0.77500
C2442       C  0.84057872  0.23495320  0.69913721     0.98400
C2443       C  0.78113034  0.22697864  0.76106342     0.93300
O2444       O  0.77531259  0.24424630  0.75532321    -0.82800
O2445       O  0.04937952  0.20159847  0.58452502    -0.82300
C2446       C  0.09710221  0.24243884  0.97140287     0.97100
O2447       O  0.07932094  0.24575953  0.98258287    -0.71400
O2448       O  0.03938593  0.20347002  0.00212427    -0.75000
Al2449     Al  0.05782639  0.22925990  0.51808493     1.49000
C2450       C  0.02443799  0.17500356  0.51036574     0.92400
O2451       O  0.08008219  0.17434208  0.53090339    -0.81200
O2452       O  0.11678712  0.24296854  0.57341145    -0.74700
Al2453     Al  0.06499370  0.18950797  0.55676839     1.90100
O2454       O  0.11840988  0.20897303  0.53211081    -0.73800
O2455       O  0.11484868  0.26969275  0.52710832    -0.73700
O2456       O  0.11197198  0.23858907  0.98828971    -0.79300
O2457       O  0.07628550  0.26342507  0.53563319    -0.77500
O2458       O  0.07806287  0.21851079  0.53477786    -1.13700
O2459       O  0.03517957  0.22018658  0.55256180    -0.72800
C2460       C  0.03550489  0.21147101  0.57879200     0.97900
C2461       C  0.10435217  0.18493800  0.52828286     0.94300
Al2462     Al  0.11209587  0.23710804  0.53034075     1.55600
O2463       O  0.03344922  0.17066733  0.53424740    -0.77500
C2464       C  0.10033517  0.27842195  0.53429356     0.98400
C2465       C  0.10921153  0.22500842  0.59292119     0.93300
O2466       O  0.09308092  0.20194829  0.58563535    -0.82800
O2467       O  0.18350589  0.47058428  0.00231793    -0.82300
C2468       C  0.19688988  0.43515579  0.61401046     0.97100
O2469       O  0.17453426  0.42973545  0.60482550    -0.71400
O2470       O  0.17442646  0.47088718  0.58517394    -0.75000
Al2471     Al  0.16434669  0.43875987  0.56659520     1.49000
C2472       C  0.18618673  0.49344618  0.57447841     0.92400
O2473       O  0.24188831  0.49299468  0.55015772    -0.81200
O2474       O  0.20749843  0.42281823  0.51105860    -0.74700
Al2475     Al  0.21058458  0.47805104  0.52629018     1.90100
O2476       O  0.24522326  0.45829282  0.54800163    -0.73800
O2477       O  0.18093226  0.39855275  0.56050391    -0.73700
O2478       O  0.21438339  0.43825043  0.59526226    -0.79300
O2479       O  0.14865829  0.40421142  0.55033771    -0.77500
O2480       O  0.19493692  0.44939303  0.54874361    -1.13700
O2481       O  0.14954688  0.44672965  0.53223974    -0.72800
C2482       C  0.15834969  0.45627539  0.50614198     0.97900
C2483       C  0.25555280  0.48232674  0.55178606     0.94300
Al2484     Al  0.21054965  0.43095456  0.55339136     1.55600
O2485       O  0.19979315  0.49817320  0.55056231    -0.77500
C2486       C  0.15756543  0.38924228  0.55388223     0.98400
C2487       C  0.21883801  0.44475961  0.99115046     0.93300
O2488       O  0.22588822  0.46810873  0.99714374    -0.82800
O2489       O  0.86469587  0.38902625  0.83023915    -0.82300
C2490       C  0.89409065  0.43649754  0.94473938     0.97100
O2491       O  0.89842868  0.41875266  0.93583428    -0.71400
O2492       O  0.85777012  0.37718608  0.91672551    -0.75000
Al2493     Al  0.88999290  0.39916642  0.89827014     1.49000
C2494       C  0.83624199  0.36439443  0.90382125     0.92400
O2495       O  0.83368138  0.41785388  0.88067129    -0.81200
O2496       O  0.90326263  0.45725166  0.84036064    -0.74700
Al2497     Al  0.85063251  0.40376595  0.85645527     1.90100
O2498       O  0.86702828  0.45715947  0.87925652    -0.73800
O2499       O  0.92954645  0.45674180  0.88817373    -0.73700
O2500       O  0.89048015  0.45024950  0.92564768    -0.79300
O2501       O  0.92437723  0.41816254  0.88275040    -0.77500
O2502       O  0.87898549  0.41831942  0.87942273    -1.13700
O2503       O  0.88294317  0.37597838  0.86413679    -0.72800
C2504       C  0.87498331  0.37575314  0.83722883     0.97900
C2505       C  0.84309229  0.44204513  0.88272244     0.94300
Al2506     Al  0.89622824  0.45255002  0.88317344     1.55600
O2507       O  0.83203069  0.37219336  0.87895905    -0.77500
C2508       C  0.93887882  0.44227489  0.88349149     0.98400
C2509       C  0.88567485  0.44795480  0.82040565     0.93300
O2510       O  0.86279165  0.43128503  0.82758353    -0.82800
O2511       O  0.12741920  0.51933445  0.92465437    -0.82300
C2512       C  0.09546352  0.53163058  0.80939131     0.97100
O2513       O  0.08959945  0.50945578  0.81993668    -0.71400
O2514       O  0.13022259  0.50824186  0.84008648    -0.75000
Al2515     Al  0.09859338  0.50010581  0.85889035     1.49000
C2516       C  0.15266579  0.51945839  0.85107041     0.92400
O2517       O  0.15510610  0.57773912  0.87138132    -0.81200
O2518       O  0.08521855  0.54670470  0.91050073    -0.74700
Al2519     Al  0.13921209  0.54705394  0.89678911     1.90100
O2520       O  0.12128066  0.58257269  0.87266061    -0.73800
O2521       O  0.06004268  0.51905067  0.86260249    -0.73700
O2522       O  0.10013245  0.55028146  0.82698962    -0.79300
O2523       O  0.06444134  0.48643441  0.87579926    -0.77500
O2524       O  0.11044922  0.53155283  0.87477183    -1.13700
O2525       O  0.10651963  0.48585712  0.89421952    -0.72800
C2526       C  0.11695793  0.49540622  0.91972700     0.97900
C2527       C  0.14524414  0.59210657  0.86916982     0.94300
Al2528     Al  0.09308648  0.54818224  0.86863181     1.55600
O2529       O  0.15796956  0.53431220  0.87380146    -0.77500
C2530       C  0.05008320  0.49582250  0.87055572     0.98400
C2531       C  0.10244162  0.55575894  0.93085104     0.93300
O2532       O  0.12566448  0.56187605  0.92529674    -0.82800
O2533       O  0.79661560  0.91047780  0.83583963    -0.82300
C2534       C  0.76309053  0.90340657  0.72038672     0.97100
O2535       O  0.76696612  0.88964030  0.73923193    -0.71400
O2536       O  0.78894480  0.88061262  0.78600682    -0.75000
Al2537     Al  0.76158004  0.88799312  0.78147048     1.49000
C2538       C  0.81269483  0.89389618  0.78029200     0.92400
O2539       O  0.82894479  0.96540642  0.77799281    -0.81200
O2540       O  0.77779207  0.96561111  0.79977899    -0.74700
Al2541     Al  0.81000087  0.93621937  0.80418819     1.90100
O2542       O  0.80039072  0.96394430  0.74583489    -0.73800
O2543       O  0.73487355  0.92321431  0.78423644    -0.73700
O2544       O  0.75872848  0.92120319  0.72927411    -0.79300
O2545       O  0.72873083  0.88475414  0.77575499    -0.77500
O2546       O  0.78027180  0.92238791  0.78399581    -1.13700
O2547       O  0.75545302  0.88487597  0.82421020    -0.72800
C2548       C  0.77356567  0.89431321  0.84359056     0.97900
C2549       C  0.82335868  0.97447649  0.75513171     0.94300
Al2550     Al  0.76885406  0.94174886  0.76632333     1.55600
O2551       O  0.82349190  0.91825174  0.78033643    -0.77500
C2552       C  0.71970907  0.89934442  0.78110508     0.98400
C2553       C  0.78951065  0.96805705  0.82465288     0.93300
O2554       O  0.80078079  0.95544936  0.83001151    -0.82800
O2555       O  0.53091509  0.79223046  0.74656203    -0.82300
C2556       C  0.57050546  0.81710761  0.86468576     0.97100
O2557       O  0.57626925  0.80475078  0.84564125    -0.71400
O2558       O  0.53866216  0.76364650  0.82116460    -0.75000
Al2559     Al  0.56594044  0.79427587  0.80414752     1.49000
C2560       C  0.51602919  0.75030834  0.81146892     0.92400
O2561       O  0.49925779  0.79753227  0.81888302    -0.81200
O2562       O  0.55941805  0.85650374  0.77681820    -0.74700
Al2563     Al  0.51675825  0.79513410  0.78340021     1.90100
O2564       O  0.52758684  0.83833199  0.82759899    -0.73800
O2565       O  0.59654099  0.85472146  0.80896789    -0.73700
O2566       O  0.56224563  0.83177563  0.85585634    -0.79300
O2567       O  0.59644049  0.82179601  0.78762452    -0.77500
O2568       O  0.54775869  0.81052778  0.80137228    -1.13700
O2569       O  0.55877961  0.78110223  0.76296188    -0.72800
C2570       C  0.54718880  0.78515628  0.74135821     0.97900
C2571       C  0.50499906  0.81918662  0.83048539     0.94300
Al2572     Al  0.56046646  0.84258128  0.81607444     1.55600
O2573       O  0.50632646  0.76018193  0.79449706    -0.77500
C2574       C  0.60834298  0.84519283  0.79509676     0.98400
C2575       C  0.53843831  0.84831393  0.76243778     0.93300
O2576       O  0.51968072  0.82590113  0.76711050    -0.82800
O2577       O  0.58365505  0.13886997  0.57782383    -0.82300
C2578       C  0.57177796  0.10228014  0.69711336     0.97100
O2579       O  0.55314171  0.09515750  0.67858530    -0.71400
O2580       O  0.54898874  0.13226349  0.65320638    -0.75000
Al2581     Al  0.55217167  0.10477391  0.63667976     1.49000
C2582       C  0.55808182  0.15485760  0.64327608     0.92400
O2583       O  0.62298996  0.17202643  0.64784129    -0.81200
O2584       O  0.61920820  0.10954456  0.60822765    -0.74700
Al2585     Al  0.60180916  0.15354949  0.61360270     1.90100
O2586       O  0.63536992  0.14369457  0.65673078    -0.73800
O2587       O  0.58126467  0.07405267  0.64380004    -0.73700
O2588       O  0.59465095  0.11104553  0.68772382    -0.79300
O2589       O  0.54924855  0.07417049  0.62071749    -0.77500
O2590       O  0.58647197  0.12301895  0.63282374    -1.13700
O2591       O  0.54519616  0.11101341  0.59541282    -0.72800
C2592       C  0.56031884  0.12255326  0.57324503     0.97900
C2593       C  0.63898885  0.16639572  0.65923739     0.94300
Al2594     Al  0.60590795  0.11059165  0.64779143     1.55600
O2595       O  0.57758678  0.16456041  0.62586905    -0.77500
C2596       C  0.55985176  0.06197691  0.63033316     0.98400
C2597       C  0.63142176  0.12955297  0.59184909     0.93300
O2598       O  0.62885051  0.14916583  0.59586749    -0.82800
O2599       O  0.43216498  0.86926137  0.67160177    -0.82300
C2600       C  0.46519251  0.90734915  0.55810912     0.97100
O2601       O  0.44642395  0.90341516  0.57531902    -0.71400
O2602       O  0.41235376  0.87858516  0.61962432    -0.75000
Al2603     Al  0.44694521  0.90650363  0.61828767     1.49000
C2604       C  0.40231509  0.85481702  0.61434843     0.92400
O2605       O  0.45778162  0.83958353  0.61391982    -0.81200
O2606       O  0.50856248  0.89311101  0.64290318    -0.74700
Al2607     Al  0.44635751  0.85739287  0.64032000     1.90100
O2608       O  0.48884267  0.87039397  0.58750241    -0.73800
O2609       O  0.50891870  0.93505818  0.62444514    -0.73700
O2610       O  0.48631100  0.91037056  0.56881414    -0.79300
O2611       O  0.47606582  0.93993369  0.61574423    -0.77500
O2612       O  0.46310454  0.88822104  0.62188422    -1.13700
O2613       O  0.44679317  0.91055075  0.66137354    -0.72800
C2614       C  0.43757886  0.89178154  0.68002614     0.97900
C2615       C  0.47487014  0.84677590  0.59349275     0.94300
Al2616     Al  0.49524155  0.90108816  0.60720121     1.55600
O2617       O  0.41613221  0.84436569  0.61493377    -0.77500
C2618       C  0.49959662  0.94967722  0.62148872     0.98400
C2619       C  0.49765775  0.87940690  0.66620811     0.93300
O2620       O  0.47342660  0.86564586  0.66782396    -0.82800
O2621       O  0.88656561  0.08654771  0.90890206    -0.82300
C2622       C  0.85599490  0.09601082  0.52811750     0.97100
O2623       O  0.86627850  0.11434607  0.50889436    -0.71400
O2624       O  0.91026652  0.12259914  0.98224411    -0.75000
Al2625     Al  0.87921203  0.11760815  0.96505329     1.49000
C2626       C  0.92381699  0.11260084  0.97560345     0.92400
O2627       O  0.87678330  0.04680892  0.97964319    -0.81200
O2628       O  0.81912626  0.04993229  0.93822733    -0.74700
Al2629     Al  0.88076904  0.06815727  0.94515656     1.90100
O2630       O  0.83602341  0.03415592  0.98703182    -0.73800
O2631       O  0.81998459  0.08716845  0.97279231    -0.73700
O2632       O  0.84173609  0.07297985  0.51958993    -0.79300
O2633       O  0.85087920  0.11877007  0.94760156    -0.77500
O2634       O  0.86447910  0.08323251  0.96254127    -1.13700
O2635       O  0.89312633  0.12424786  0.92449691    -0.72800
C2636       C  0.89243151  0.10948408  0.90337453     0.97900
C2637       C  0.85508927  0.03086293  0.99071786     0.94300
Al2638     Al  0.83258828  0.06339405  0.97745603     1.55600
O2639       O  0.91467784  0.09206319  0.96015569    -0.77500
C2640       C  0.82809873  0.10758222  0.95746723     0.98400
C2641       C  0.82800916  0.03907477  0.92113047     0.93300
O2642       O  0.85017620  0.04168580  0.92549838    -0.82800
O2643       O  0.75920017  0.23263127  0.50052166    -0.82300
C2644       C  0.76596429  0.19975281  0.88822655     0.97100
O2645       O  0.77979374  0.21725545  0.90710170    -0.71400
O2646       O  0.78668200  0.24995490  0.95067142    -0.75000
Al2647     Al  0.78080599  0.21569047  0.94940565     1.49000
C2648       C  0.77277096  0.25944426  0.94362779     0.92400
O2649       O  0.70235101  0.20337432  0.94436030    -0.81200
O2650       O  0.70570667  0.15333345  0.97130709    -0.74700
Al2651     Al  0.73172004  0.21542958  0.96984085     1.90100
O2652       O  0.70332849  0.17411730  0.91568742    -0.73800
O2653       O  0.74778522  0.15340295  0.95174547    -0.73700
O2654       O  0.74712608  0.17809976  0.89705760    -0.79300
O2655       O  0.78567259  0.18704116  0.94648418    -0.77500
O2656       O  0.74636891  0.19919538  0.95146940    -1.13700
O2657       O  0.78364612  0.21508568  0.99251009    -0.72800
C2658       C  0.77610411  0.22713594  0.50926275     0.97900
C2659       C  0.69290967  0.18712226  0.92317161     0.94300
Al2660     Al  0.72767171  0.16756910  0.93538282     1.55600
O2661       O  0.74851769  0.24535637  0.94373411    -0.77500
C2662       C  0.77181798  0.16314593  0.94949104     0.98400
C2663       C  0.70319539  0.16398208  0.99527325     0.93300
O2664       O  0.71369269  0.18822114  0.99742547    -0.82800
C2665       C  0.82196032  0.14294610  0.93641298    -0.21800
C2666       C  0.81167426  0.11952470  0.95252537    -0.09800
C2667       C  0.78677967  0.10922839  0.96557462     0.29100
C2668       C  0.77334102  0.12295825  0.96390717    -0.21800
C2669       C  0.78451364  0.14716327  0.94939490    -0.09800
C2670       C  0.80866929  0.15658391  0.93480720     0.29100
F2671       F  0.81964546  0.17916230  0.91893491    -0.20300
H2672       H  0.84078565  0.15122286  0.92561848     0.17400
H2673       H  0.75460554  0.11507551  0.97482683     0.17400
F2674       F  0.77570728  0.08633382  0.98072984    -0.20300
C2675       C  0.66022347  0.13178785  0.51462942    -0.21800
C2676       C  0.68610717  0.15045305  0.52025543    -0.09800
C2677       C  0.69431820  0.15747597  0.55060871     0.29100
C2678       C  0.67643346  0.14818492  0.57456099    -0.21800
C2679       C  0.65018405  0.13152229  0.56867923    -0.09800
C2680       C  0.64226151  0.12234983  0.53878471     0.29100
F2681       F  0.61690914  0.10618537  0.53261166    -0.20300
H2682       H  0.65582746  0.11953473  0.99486220     0.17400
H2683       H  0.68278703  0.15550999  0.59748224     0.17400
F2684       F  0.71939662  0.17472152  0.55683535    -0.20300
C2685       C  0.52004396  0.02088627  0.61725147    -0.21800
C2686       C  0.54583054  0.03326731  0.62708427    -0.09800
C2687       C  0.55663642  0.01780251  0.63519920     0.29100
C2688       C  0.54175390  0.99062090  0.63334434    -0.21800
C2689       C  0.51579008  0.97839142  0.62381341    -0.09800
C2690       C  0.50521654  0.99405627  0.61576653     0.29100
F2691       F  0.48038022  0.98360681  0.60626219    -0.20300
H2692       H  0.51092570  0.03201067  0.61108445     0.17400
H2693       H  0.55047480  0.97915423  0.63960136     0.17400
F2694       F  0.58143158  0.02882446  0.64498046    -0.20300
C2695       C  0.50137357  0.87347842  0.72145154    -0.21800
C2696       C  0.51281436  0.87856379  0.69233635    -0.09800
C2697       C  0.53650371  0.87909208  0.68844683     0.29100
C2698       C  0.54700235  0.87199887  0.71280127    -0.21800
C2699       C  0.53394665  0.86449770  0.74097625    -0.09800
C2700       C  0.51170560  0.86641663  0.74548642     0.29100
F2701       F  0.49859442  0.85906227  0.77245481    -0.20300
H2702       H  0.48339923  0.87336441  0.72514336     0.17400
H2703       H  0.56391533  0.87014251  0.70885519     0.17400
F2704       F  0.54805792  0.88388824  0.66055660    -0.20300
C2705       C  0.78400809  0.97896893  0.87764744    -0.21800
C2706       C  0.79216266  0.98715896  0.84753711    -0.09800
C2707       C  0.80885341  0.01351109  0.84153667     0.29100
C2708       C  0.81911451  0.03102103  0.86580069    -0.21800
C2709       C  0.81243923  0.02240789  0.89605530    -0.09800
C2710       C  0.79407206  0.99651037  0.90186874     0.29100
F2711       F  0.78782126  0.98776442  0.93105507    -0.20300
H2712       H  0.77130848  0.95866214  0.88255106     0.17400
H2713       H  0.83354636  0.05093579  0.86115173     0.17400
F2714       F  0.81747237  0.02174174  0.81265724    -0.20300
C2715       C  0.67581403  0.86373175  0.76818315    -0.21800
C2716       C  0.69118689  0.88758733  0.78277637    -0.09800
C2717       C  0.67891780  0.89868183  0.79936774     0.29100
C2718       C  0.65183292  0.88537052  0.80238028    -0.21800
C2719       C  0.63658217  0.86090781  0.78876222    -0.09800
C2720       C  0.64899440  0.85059545  0.77094748     0.29100
F2721       F  0.63535558  0.82744477  0.75660223    -0.20300
H2722       H  0.68464294  0.85490270  0.75476219     0.17400
H2723       H  0.64287901  0.89381147  0.81624291     0.17400
F2724       F  0.69305381  0.92167446  0.81384159    -0.20300
C2725       C  0.98105697  0.44264998  0.88894309    -0.21800
C2726       C  0.96704673  0.45436581  0.87866724    -0.09800
C2727       C  0.98039298  0.47880746  0.86479376     0.29100
C2728       C  0.00710954  0.49150718  0.86192817    -0.21800
C2729       C  0.02147998  0.48042817  0.87295795    -0.09800
C2730       C  0.00816003  0.45563864  0.88631901     0.29100
F2731       F  0.02123543  0.44431187  0.89757794    -0.20300
H2732       H  0.97111111  0.42385833  0.89985672     0.17400
H2733       H  0.01657625  0.51036246  0.85113754     0.17400
F2734       F  0.96758225  0.49051881  0.85375937    -0.20300
C2735       C  0.82439132  0.32942126  0.94178852    -0.21800
C2736       C  0.81698595  0.33901501  0.91687604    -0.09800
C2737       C  0.79286913  0.32279780  0.90291135     0.29100
C2738       C  0.77736443  0.29712523  0.91286383    -0.21800
C2739       C  0.78592948  0.28729292  0.93638605    -0.09800
C2740       C  0.80928264  0.30393414  0.95125810     0.29100
F2741       F  0.81808868  0.29528822  0.97442129    -0.20300
H2742       H  0.84269470  0.34126210  0.95314621     0.17400
H2743       H  0.75947676  0.28456841  0.90106798     0.17400
F2744       F  0.78480796  0.33124719  0.87883596    -0.20300
C2745       C  0.11839976  0.48502023  0.97455729    -0.21800
C2746       C  0.11971139  0.47941876  0.94357049    -0.09800
C2747       C  0.12998507  0.46345813  0.93590919     0.29100
C2748       C  0.14179061  0.45623083  0.95845859    -0.21800
C2749       C  0.14245076  0.46384764  0.98903339    -0.09800
C2750       C  0.12925170  0.47692560  0.99722927     0.29100
F2751       F  0.12011859  0.47022916  0.51907639    -0.20300
H2752       H  0.11072075  0.49734651  0.98101710     0.17400
H2753       H  0.15175564  0.44599797  0.95177910     0.17400
F2754       F  0.13136059  0.45744814  0.90625032    -0.20300
C2755       C  0.13920052  0.31891991  0.54913082    -0.21800
C2756       C  0.11294612  0.30642656  0.54140600    -0.09800
C2757       C  0.10060031  0.32122851  0.53929633     0.29100
C2758       C  0.11487858  0.34825913  0.54365682    -0.21800
C2759       C  0.14149138  0.36069168  0.55041374    -0.09800
C2760       C  0.15327718  0.34541142  0.55347907     0.29100
F2761       F  0.17875160  0.35591555  0.56014321    -0.20300
H2762       H  0.14925839  0.30812104  0.55149359     0.17400
H2763       H  0.10524824  0.35945749  0.54135344     0.17400
F2764       F  0.07517562  0.30982902  0.53210133    -0.20300
C2765       C  0.98075828  0.13604795  0.51829268    -0.21800
C2766       C  0.00277355  0.16117323  0.00212459    -0.09800
C2767       C  0.99334578  0.16504839  0.97427518     0.29100
C2768       C  0.96794660  0.14813569  0.96526918    -0.21800
C2769       C  0.95141676  0.12696547  0.98352832    -0.09800
C2770       C  0.95515976  0.11978284  0.50902101     0.29100
F2771       F  0.93753335  0.10342910  0.52964186    -0.20300
H2772       H  0.98581554  0.13518954  0.54186200     0.17400
H2773       H  0.96079095  0.15215189  0.94444488     0.17400
F2774       F  0.00821983  0.18580092  0.95626512    -0.20300
C2775       C  0.70374118  0.22728808  0.67268460    -0.21800
C2776       C  0.71461431  0.21801372  0.69419122    -0.09800
C2777       C  0.69874374  0.19360730  0.70755464     0.29100
C2778       C  0.67342393  0.17791511  0.69764380    -0.21800
C2779       C  0.66309617  0.18608466  0.67431416    -0.09800
C2780       C  0.67808371  0.21141992  0.66273942     0.29100
F2781       F  0.66883241  0.21994850  0.63998025    -0.20300
H2782       H  0.71560103  0.24597206  0.66202978     0.17400
H2783       H  0.66223195  0.15865719  0.70718910     0.17400
F2784       F  0.70817898  0.18429904  0.72925587    -0.20300
C2785       C  0.85735143  0.31371132  0.79749274    -0.21800
C2786       C  0.85801587  0.32119805  0.76692235    -0.09800
C2787       C  0.87010859  0.34757265  0.75957010     0.29100
C2788       C  0.87847821  0.36595409  0.78292483    -0.21800
C2789       C  0.87527395  0.35824095  0.81373811    -0.09800
C2790       C  0.86630703  0.33217883  0.82085322     0.29100
F2791       F  0.86306702  0.32416986  0.85041341    -0.20300
H2792       H  0.84808554  0.29341171  0.80343946     0.17400
H2793       H  0.88538485  0.38599452  0.77704959     0.17400
F2794       F  0.87064379  0.35528863  0.73023314    -0.20300
C2795       C  0.81436200  0.23917487  0.58283642    -0.21800
C2796       C  0.79640018  0.23822678  0.60437985    -0.09800
C2797       C  0.77261689  0.23478755  0.59431216     0.29100
C2798       C  0.76668473  0.23182077  0.56331892    -0.21800
C2799       C  0.78408053  0.23174868  0.54166156    -0.09800
C2800       C  0.80814280  0.23560992  0.55161002     0.29100
F2801       F  0.82568920  0.23630221  0.53125277    -0.20300
H2802       H  0.83292353  0.24213939  0.59026383     0.17400
H2803       H  0.74809149  0.22904928  0.55632380     0.17400
F2804       F  0.75525519  0.23483195  0.61444987    -0.20300
C2805       C  0.79117843  0.23780419  0.81508407    -0.21800
C2806       C  0.77927775  0.21862305  0.79286383    -0.09800
C2807       C  0.76448222  0.19263127  0.80173784     0.29100
C2808       C  0.76050272  0.18621600  0.83292845    -0.21800
C2809       C  0.77179061  0.20565739  0.85533990    -0.09800
C2810       C  0.78786684  0.23153702  0.84593429     0.29100
F2811       F  0.79955049  0.25118168  0.86638861    -0.20300
H2812       H  0.80269930  0.25792098  0.80846507     0.17400
H2813       H  0.74823628  0.16620449  0.83952833     0.17400
F2814       F  0.75278605  0.17377611  0.78040858    -0.20300
C2815       C  0.86675338  0.01517784  0.75637692    -0.21800
C2816       C  0.84337941  0.99918280  0.74092232    -0.09800
C2817       C  0.83781244  0.00896445  0.71448311     0.29100
C2818       C  0.85396409  0.03466068  0.70557940    -0.21800
C2819       C  0.87626660  0.05111003  0.72230780    -0.09800
C2820       C  0.88313152  0.04088889  0.74710839     0.29100
F2821       F  0.90440701  0.05629798  0.76394167    -0.20300
H2822       H  0.87160496  0.00833375  0.77684434     0.17400
H2823       H  0.84846365  0.04208765  0.68614895     0.17400
F2824       F  0.81605853  0.99419411  0.69806045    -0.20300
C2825       C  0.89492210  0.21870818  0.69999289    -0.21800
C2826       C  0.88219365  0.19415643  0.71401122    -0.09800
C2827       C  0.85681419  0.18473483  0.72501684     0.29100
C2828       C  0.84415944  0.19870362  0.72064602    -0.21800
C2829       C  0.85630802  0.22263995  0.70566879    -0.09800
C2830       C  0.88210309  0.23294875  0.69590884     0.29100
F2831       F  0.89437302  0.25599563  0.68110435    -0.20300
H2832       H  0.91444391  0.22650171  0.69141532     0.17400
H2833       H  0.82446779  0.19055095  0.72885096     0.17400
F2834       F  0.84387531  0.16176223  0.73993695    -0.20300
C2835       C  0.90572069  0.15036291  0.83194914    -0.21800
C2836       C  0.89859411  0.13135887  0.80923035    -0.09800
C2837       C  0.89185769  0.10606629  0.81764104     0.29100
C2838       C  0.89112469  0.09965495  0.84823551    -0.21800
C2839       C  0.89691414  0.11818698  0.87125622    -0.09800
C2840       C  0.90473998  0.14384223  0.86286430     0.29100
F2841       F  0.91116257  0.16249673  0.88435270    -0.20300
H2842       H  0.91162557  0.17012396  0.82578830     0.17400
H2843       H  0.88534625  0.07981659  0.85383351     0.17400
F2844       F  0.88642154  0.08751882  0.79626708    -0.20300
C2845       C  0.86680774  0.12463945  0.57420974    -0.21800
C2846       C  0.86169329  0.10109080  0.56095406    -0.09800
C2847       C  0.86356785  0.08260974  0.57902610     0.29100
C2848       C  0.87115574  0.08793814  0.60942551    -0.21800
C2849       C  0.87655740  0.11148633  0.62262077    -0.09800
C2850       C  0.87387523  0.12971407  0.60508114     0.29100
F2851       F  0.87940734  0.15283831  0.61728171    -0.20300
H2852       H  0.86557016  0.13912983  0.56060599     0.17400
H2853       H  0.87325453  0.07374791  0.62263898     0.17400
F2854       F  0.85947384  0.05990836  0.56690273    -0.20300
C2855       C  0.97348443  0.19253974  0.61897459    -0.21800
C2856       C  0.98108024  0.19356106  0.64945104    -0.09800
C2857       C  0.00740993  0.20559857  0.65679072     0.29100
C2858       C  0.02574203  0.21382671  0.63337054    -0.21800
C2859       C  0.01789731  0.21058052  0.60268064    -0.09800
C2860       C  0.99184308  0.20134936  0.59560914     0.29100
F2861       F  0.98375858  0.19774597  0.56610383    -0.20300
H2862       H  0.95316684  0.18302080  0.61314532     0.17400
H2863       H  0.04581542  0.22091173  0.63907611     0.17400
F2864       F  0.01509508  0.20636461  0.68616684    -0.20300
C2865       C  0.85022731  0.96616932  0.00628232    -0.21800
C2866       C  0.82926222  0.95283755  0.52192202    -0.09800
C2867       C  0.82511966  0.96996314  0.53997779     0.29100
C2868       C  0.83488650  0.99553400  0.53079113    -0.21800
C2869       C  0.84904683  0.00453717  0.50355696    -0.09800
C2870       C  0.86080593  0.99188096  0.99613662     0.29100
F2871       F  0.87910040  0.00079159  0.97382440    -0.20300
H2872       H  0.85680576  0.95390908  0.99609550     0.17400
H2873       H  0.83006153  0.00792785  0.54401050     0.17400
F2874       F  0.81028058  0.96148957  0.56563051    -0.20300
C2875       C  0.75335422  0.86138510  0.88517550    -0.21800
C2876       C  0.76834297  0.88725018  0.87593916    -0.09800
C2877       C  0.77965061  0.90678776  0.89803511     0.29100
C2878       C  0.77646364  0.90058459  0.92888002    -0.21800
C2879       C  0.76246756  0.87471235  0.93844378    -0.09800
C2880       C  0.75068982  0.85502575  0.91634630     0.29100
F2881       F  0.73685487  0.82980852  0.92476480    -0.20300
H2882       H  0.74456308  0.84613823  0.86827643     0.17400
H2883       H  0.78579867  0.91616372  0.94530206     0.17400
F2884       F  0.79407456  0.93198764  0.88980576    -0.20300
C2885       C  0.75211110  0.90634118  0.66581856    -0.21800
C2886       C  0.76458788  0.89901845  0.68752123    -0.09800
C2887       C  0.77973463  0.88841720  0.67749698     0.29100
C2888       C  0.78251585  0.88549823  0.64648063    -0.21800
C2889       C  0.76999434  0.89259172  0.62480940    -0.09800
C2890       C  0.75454696  0.90287042  0.63452076     0.29100
F2891       F  0.74277279  0.91046111  0.61384200    -0.20300
H2892       H  0.74055103  0.91474500  0.67308988     0.17400
H2893       H  0.79459858  0.87763928  0.63932586     0.17400
F2894       F  0.79272011  0.88172624  0.69754835    -0.20300
C2895       C  0.50078905  0.83738514  0.55646175    -0.21800
C2896       C  0.48059802  0.82797249  0.57797634    -0.09800
C2897       C  0.46924013  0.80186401  0.58725132     0.29100
C2898       C  0.47958762  0.78648243  0.57717781    -0.21800
C2899       C  0.50141991  0.79697891  0.55800635    -0.09800
C2900       C  0.51121173  0.82228164  0.54679491     0.29100
F2901       F  0.53177785  0.83299635  0.52743792    -0.20300
H2902       H  0.50971933  0.85715072  0.54835578     0.17400
H2903       H  0.47158066  0.76697783  0.58588042     0.17400
F2904       F  0.44923898  0.79164277  0.60740272    -0.20300
C2905       C  0.67537518  0.78785891  0.53276950    -0.21800
C2906       C  0.69101147  0.81334617  0.54320491    -0.09800
C2907       C  0.67953986  0.82527765  0.55960788     0.29100
C2908       C  0.65290750  0.81266768  0.56384860    -0.21800
C2909       C  0.63686627  0.78782133  0.55186617    -0.09800
C2910       C  0.64839875  0.77512529  0.53697138     0.29100
F2911       F  0.63362916  0.75109723  0.52513970    -0.20300
H2912       H  0.68387571  0.77833508  0.52009215     0.17400
H2913       H  0.64476192  0.82274815  0.57608266     0.17400
F2914       F  0.69411137  0.84945950  0.57120883    -0.20300
C2915       C  0.55580146  0.79576418  0.65636096    -0.21800
C2916       C  0.56249164  0.77730140  0.64725007    -0.09800
C2917       C  0.56531115  0.76198462  0.66977238     0.29100
C2918       C  0.56084082  0.76483990  0.70063840    -0.21800
C2919       C  0.55310269  0.78259789  0.70929961    -0.09800
C2920       C  0.55106536  0.79836024  0.68690703     0.29100
F2921       F  0.54464612  0.81651730  0.69450643    -0.20300
H2922       H  0.55360805  0.80795715  0.63972282     0.17400
H2923       H  0.56271839  0.75270227  0.71763999     0.17400
F2924       F  0.57179899  0.74391776  0.66205357    -0.20300
C2925       C  0.57871694  0.79085938  0.94013917    -0.21800
C2926       C  0.56478412  0.79811128  0.95964587    -0.09800
C2927       C  0.55557112  0.81401185  0.94878124     0.29100
C2928       C  0.55924430  0.82167327  0.91823894    -0.21800
C2929       C  0.57162906  0.81303955  0.89786378    -0.09800
C2930       C  0.58201862  0.79808067  0.90930774     0.29100
F2931       F  0.59436110  0.78951542  0.89061277    -0.20300
H2932       H  0.58589655  0.77853753  0.94845177     0.17400
H2933       H  0.55105598  0.83319681  0.91022331     0.17400
F2934       F  0.54219576  0.82134091  0.96745870    -0.20300
C2935       C  0.53341384  0.68162938  0.92665322    -0.21800
C2936       C  0.52233198  0.65555717  0.93486370    -0.09800
C2937       C  0.52342237  0.64894451  0.96541685     0.29100
C2938       C  0.53287216  0.66807782  0.98801753    -0.21800
C2939       C  0.54079558  0.69378021  0.98023827    -0.09800
C2940       C  0.54242627  0.70068038  0.94921721     0.29100
F2941       F  0.55063829  0.72552359  0.94099282    -0.20300
H2942       H  0.53269081  0.68699641  0.90314970     0.17400
H2943       H  0.52181097  0.66082544  0.51842731     0.17400
F2944       F  0.51378364  0.62386185  0.97357547    -0.20300
C2945       C  0.48090443  0.68786159  0.85581924    -0.21800
C2946       C  0.48211038  0.67025000  0.83526007    -0.09800
C2947       C  0.49191055  0.67887254  0.80559742     0.29100
C2948       C  0.50143086  0.70478165  0.79740595    -0.21800
C2949       C  0.50161273  0.72251991  0.81865529    -0.09800
C2950       C  0.49084789  0.71383192  0.84774048     0.29100
F2951       F  0.49098466  0.73069433  0.86872293    -0.20300
H2952       H  0.47373493  0.68193654  0.87890567     0.17400
H2953       H  0.50987834  0.71132438  0.77491327     0.17400
F2954       F  0.49323322  0.66257637  0.78492151    -0.20300
C2955       C  0.55883478  0.55267608  0.87278429    -0.21800
C2956       C  0.54564544  0.52788587  0.88620916    -0.09800
C2957       C  0.51982645  0.51819719  0.89572117     0.29100
C2958       C  0.50736374  0.53224786  0.89069918    -0.21800
C2959       C  0.52003231  0.55645723  0.87635399    -0.09800
C2960       C  0.54614703  0.56695283  0.86793506     0.29100
F2961       F  0.55890650  0.59023168  0.85369346    -0.20300
H2962       H  0.57865951  0.56064951  0.86524151     0.17400
H2963       H  0.48737424  0.52389336  0.89784185     0.17400
F2964       F  0.50618977  0.49482483  0.90962933    -0.20300
C2965       C  0.68642904  0.54594494  0.80001177    -0.21800
C2966       C  0.67885014  0.54146344  0.76918920    -0.09800
C2967       C  0.65267854  0.53140349  0.76183969     0.29100
C2968       C  0.63418316  0.52345081  0.78515681    -0.21800
C2969       C  0.64158376  0.52597272  0.81598824    -0.09800
C2970       C  0.66797561  0.53858950  0.82331731     0.29100
F2971       F  0.67572687  0.54097523  0.85288992    -0.20300
H2972       H  0.70652765  0.55367258  0.80608737     0.17400
H2973       H  0.61389691  0.51350842  0.77913702     0.17400
F2974       F  0.64465883  0.52650212  0.73232667    -0.20300
C2975       C  0.78886323  0.80254515  0.65192616    -0.21800
C2976       C  0.80454589  0.79191256  0.64499807    -0.09800
C2977       C  0.80888579  0.78811980  0.61425606     0.29100
C2978       C  0.79980756  0.79729437  0.59082972    -0.21800
C2979       C  0.78687977  0.81078064  0.59795241    -0.09800
C2980       C  0.78030615  0.81226732  0.62848736     0.29100
F2981       F  0.76734578  0.82485724  0.63570672    -0.20300
H2982       H  0.78545887  0.80568870  0.67550260     0.17400
H2983       H  0.80512627  0.79617247  0.56737576     0.17400
F2984       F  0.82377152  0.77755601  0.60703196    -0.20300
C2985       C  0.77377227  0.67865500  0.71708586    -0.21800
C2986       C  0.79833127  0.69355276  0.70352773    -0.09800
C2987       C  0.80783577  0.68120148  0.68451539     0.29100
C2988       C  0.79409136  0.65451160  0.68080077    -0.21800
C2989       C  0.77053878  0.63912840  0.69610231    -0.09800
C2990       C  0.75989408  0.65149868  0.71348222     0.29100
F2991       F  0.73711036  0.63738448  0.72846806    -0.20300
H2992       H  0.76605560  0.68782233  0.73178410     0.17400
H2993       H  0.80252775  0.64570526  0.66663594     0.17400
F2994       F  0.83097297  0.69494353  0.67008475    -0.20300
C2995       C  0.82821079  0.83995793  0.77864992    -0.21800
C2996       C  0.84429258  0.84621646  0.75277371    -0.09800
C2997       C  0.85337598  0.87071258  0.73906013     0.29100
C2998       C  0.84473687  0.88740849  0.74958428    -0.21800
C2999       C  0.82683255  0.87989061  0.77369096    -0.09800
C3000       C  0.81948046  0.85643755  0.78889798     0.29100
F3001       F  0.80280246  0.84883500  0.81294899    -0.20300
H3002       H  0.82111992  0.82153794  0.79008235     0.17400
H3003       H  0.85064596  0.90536836  0.73755172     0.17400
F3004       F  0.86928808  0.87792791  0.71434387    -0.20300
C3005       C  0.83170670  0.83110931  0.97329328    -0.21800
C3006       C  0.83961177  0.84981327  0.99658211    -0.09800
C3007       C  0.86627595  0.86239746  0.50086963     0.29100
C3008       C  0.88061595  0.84993298  0.99915923    -0.21800
C3009       C  0.87189141  0.83031957  0.97708043    -0.09800
C3010       C  0.84745819  0.82124617  0.96394820     0.29100
F3011       F  0.83838721  0.80200361  0.94281253    -0.20300
H3012       H  0.81266240  0.82300727  0.96329972     0.17400
H3013       H  0.89925796  0.85683171  0.00982947     0.17400
F3014       F  0.87504756  0.88301937  0.51995932    -0.20300
C3015       C  0.91665707  0.78392751  0.57860873    -0.21800
C3016       C  0.89717009  0.76611852  0.55921918    -0.09800
C3017       C  0.87246248  0.74942871  0.57139820     0.29100
C3018       C  0.86725198  0.75132746  0.60224265    -0.21800
C3019       C  0.88639423  0.77023715  0.62093417    -0.09800
C3020       C  0.91126327  0.78622487  0.60909967     0.29100
F3021       F  0.93022814  0.80436726  0.62692694    -0.20300
H3022       H  0.93583691  0.79697880  0.56981296     0.17400
H3023       H  0.84797635  0.73888113  0.61117740     0.17400
F3024       F  0.85331924  0.73162674  0.55347569    -0.20300
C3025       C  0.85334716  0.76484727  0.86149847    -0.21800
C3026       C  0.87985935  0.77908174  0.86838225    -0.09800
C3027       C  0.89797475  0.78702641  0.84435459     0.29100
C3028       C  0.88972415  0.78093895  0.81430532    -0.21800
C3029       C  0.86330608  0.76706158  0.80723555    -0.09800
C3030       C  0.84505526  0.75907189  0.83108409     0.29100
F3031       F  0.81936454  0.74558278  0.82508448    -0.20300
H3032       H  0.83905381  0.75836934  0.87963480     0.17400
H3033       H  0.90424196  0.78770492  0.79638536     0.17400
F3034       F  0.92379412  0.80035912  0.84973255    -0.20300
C3035       C  0.69111562  0.49818166  0.95454537    -0.21800
C3036       C  0.71043371  0.50493648  0.93222096    -0.09800
C3037       C  0.70357478  0.50186158  0.90119279     0.29100
C3038       C  0.67789328  0.49256785  0.89265124    -0.21800
C3039       C  0.65873927  0.48721514  0.91481626    -0.09800
C3040       C  0.66549371  0.48979216  0.94596225     0.29100
F3041       F  0.64755164  0.48496551  0.96798208    -0.20300
H3042       H  0.69619410  0.50100183  0.97856744     0.17400
H3043       H  0.67329228  0.49118549  0.86851948     0.17400
F3044       F  0.72194180  0.50891390  0.87912213    -0.20300
C3045       C  0.87454016  0.65366968  0.95686667    -0.21800
C3046       C  0.84746152  0.64009501  0.95444491    -0.09800
C3047       C  0.83438659  0.65418301  0.95266685     0.29100
C3048       C  0.84802437  0.68110903  0.95334303    -0.21800
C3049       C  0.87500783  0.69483729  0.95640647    -0.09800
C3050       C  0.88823740  0.68085042  0.95835810     0.29100
F3051       F  0.91430853  0.69337840  0.96138643    -0.20300
H3052       H  0.88501324  0.64322234  0.95806810     0.17400
H3053       H  0.83725302  0.69125585  0.95201647     0.17400
F3054       F  0.80832005  0.64194935  0.94947108    -0.20300
C3055       C  0.80978770  0.44613902  0.91335361    -0.21800
C3056       C  0.82701203  0.45391833  0.88851778    -0.09800
C3057       C  0.83280167  0.47662669  0.87254957     0.29100
C3058       C  0.82378935  0.49268597  0.88320953    -0.21800
C3059       C  0.80857353  0.48626732  0.90970696    -0.09800
C3060       C  0.80053064  0.46225845  0.92396795     0.29100
F3061       F  0.78607534  0.45570008  0.94992225    -0.20300
H3062       H  0.80531052  0.42881495  0.92604738     0.17400
H3063       H  0.82997450  0.51096587  0.87177490     0.17400
F3064       F  0.84875983  0.48420658  0.84781311    -0.20300
C3065       C  0.78038213  0.58405924  0.81079879    -0.21800
C3066       C  0.78523154  0.56840601  0.79113951    -0.09800
C3067       C  0.79787053  0.55565285  0.80224856     0.29100
C3068       C  0.80493742  0.55793499  0.83292555    -0.21800
C3069       C  0.79891474  0.57245043  0.85327213    -0.09800
C3070       C  0.78694713  0.58594608  0.84178398     0.29100
F3071       F  0.78075126  0.60018645  0.86056057    -0.20300
H3072       H  0.77020978  0.59361802  0.80253033     0.17400
H3073       H  0.81401081  0.54724656  0.84102217     0.17400
F3074       F  0.80255737  0.54023948  0.78358043    -0.20300
C3075       C  0.78081409  0.54949950  0.56440453    -0.21800
C3076       C  0.76899358  0.55631144  0.54137762    -0.09800
C3077       C  0.75351918  0.56698840  0.54988214     0.29100
C3078       C  0.74977344  0.57027795  0.58099834    -0.21800
C3079       C  0.76175186  0.56339688  0.60391572    -0.09800
C3080       C  0.77738097  0.55298546  0.59510717     0.29100
F3081       F  0.78897726  0.54543515  0.61611733    -0.20300
H3082       H  0.79298893  0.54140059  0.55870461     0.17400
H3083       H  0.73754729  0.57820395  0.58715970     0.17400
F3084       F  0.74166488  0.57373557  0.52834133    -0.20300
C3085       C  0.19025564  0.53781066  0.57486739    -0.21800
C3086       C  0.18187325  0.51366521  0.58906970    -0.09800
C3087       C  0.16606347  0.50755637  0.61533603     0.29100
C3088       C  0.15680329  0.52373981  0.62492837    -0.21800
C3089       C  0.16334909  0.54671339  0.60925646    -0.09800
C3090       C  0.18124393  0.55435750  0.58503757     0.29100
F3091       F  0.18834566  0.57667744  0.56970940    -0.20300
H3092       H  0.20258598  0.54323536  0.55482642     0.17400
H3093       H  0.14341163  0.51765979  0.64403548     0.17400
F3094       F  0.15811716  0.48513113  0.63087041    -0.20300
C3095       C  0.08918029  0.57405862  0.50328781    -0.21800
C3096       C  0.09484484  0.56028697  0.52514876    -0.09800
C3097       C  0.10243778  0.54261572  0.51498036     0.29100
C3098       C  0.09076503  0.53736683  0.98187106    -0.21800
C3099       C  0.09557419  0.55763019  0.96212776    -0.09800
C3100       C  0.09758655  0.58047976  0.97346098     0.29100
F3101       F  0.10250602  0.60033108  0.95435349    -0.20300
H3102       H  0.08335801  0.58778705  0.51042713     0.17400
H3103       H  0.08905771  0.51966736  0.97294041     0.17400
F3104       F  0.10793450  0.52858973  0.53487478    -0.20300
C3105       C  0.08910838  0.52342988  0.72292175    -0.21800
C3106       C  0.10461846  0.54925346  0.71366447    -0.09800
C3107       C  0.11653884  0.56868454  0.73578102     0.29100
C3108       C  0.11290487  0.56250944  0.76659500    -0.21800
C3109       C  0.09782204  0.53675020  0.77623711    -0.09800
C3110       C  0.08605748  0.51706902  0.75414469     0.29100
F3111       F  0.07159416  0.49192460  0.76262356    -0.20300
H3112       H  0.07993144  0.50823915  0.70601886     0.17400
H3113       H  0.12245253  0.57807549  0.78299753     0.17400
F3114       F  0.13161866  0.59383602  0.72764972    -0.20300
C3115       C  0.83726428  0.36890881  0.62521274    -0.21800
C3116       C  0.83182255  0.38556859  0.64228477    -0.09800
C3117       C  0.81647576  0.37607229  0.66871518     0.29100
C3118       C  0.80853488  0.35086001  0.67903582    -0.21800
C3119       C  0.81571658  0.33480863  0.66304894    -0.09800
C3120       C  0.82930948  0.34387031  0.63525936     0.29100
F3121       F  0.83634097  0.32917866  0.61853376    -0.20300
H3122       H  0.84901665  0.37584627  0.60468841     0.17400
H3123       H  0.79810341  0.34449805  0.70049719     0.17400
F3124       F  0.81113318  0.39179468  0.68591102    -0.20300
C3125       C  0.86647856  0.52920470  0.50693362    -0.21800
C3126       C  0.85639932  0.54544503  0.51314357    -0.09800
C3127       C  0.85731147  0.55442138  0.54309942     0.29100
C3128       C  0.86603398  0.54514343  0.56706446    -0.21800
C3129       C  0.87367503  0.52678649  0.56113369    -0.09800
C3130       C  0.87524738  0.52007035  0.53068613     0.29100
F3131       F  0.88339286  0.50305304  0.52420648    -0.20300
H3132       H  0.87859578  0.53936321  0.99072866     0.17400
H3133       H  0.86449525  0.55037135  0.59040780     0.17400
F3134       F  0.84740884  0.57001042  0.54953442    -0.20300
C3135       C  0.91162316  0.48617067  0.74684293    -0.21800
C3136       C  0.89681090  0.46691944  0.72531274    -0.09800
C3137       C  0.87952242  0.44169880  0.73539846     0.29100
C3138       C  0.87666032  0.43602674  0.76634721    -0.21800
C3139       C  0.89104079  0.45515426  0.78802101    -0.09800
C3140       C  0.90903969  0.48024017  0.77816918     0.29100
F3141       F  0.92328035  0.49907370  0.79870334    -0.20300
H3142       H  0.92509620  0.50567753  0.73940777     0.17400
H3143       H  0.86287273  0.41648652  0.77342647     0.17400
F3144       F  0.86447402  0.42263263  0.71544804    -0.20300
C3145       C  0.89330552  0.42396129  0.99984548    -0.21800
C3146       C  0.89232364  0.44074233  0.97789479    -0.09800
C3147       C  0.88773912  0.46054521  0.98788739     0.29100
C3148       C  0.87361277  0.44765678  0.51594243    -0.21800
C3149       C  0.88993468  0.44623579  0.53784409    -0.09800
C3150       C  0.90997758  0.44188334  0.52840312     0.29100
F3151       F  0.92589602  0.44015206  0.54913485    -0.20300
H3152       H  0.89657091  0.40841325  0.99284069     0.17400
H3153       H  0.85804002  0.45098779  0.52269208     0.17400
F3154       F  0.88702937  0.47762460  0.96798504    -0.20300
C3155       C  0.98445852  0.51300832  0.64092814    -0.21800
C3156       C  0.97056255  0.52454105  0.62969482    -0.09800
C3157       C  0.98440251  0.54964255  0.61729877     0.29100
C3158       C  0.01156886  0.56243456  0.61559548    -0.21800
C3159       C  0.02513759  0.55025714  0.62597528    -0.09800
C3160       C  0.01123369  0.52553958  0.63906536     0.29100
F3161       F  0.02353444  0.51332483  0.65014394    -0.20300
H3162       H  0.97455435  0.49392216  0.65112962     0.17400
H3163       H  0.02191826  0.58141654  0.60519650     0.17400
F3164       F  0.97177427  0.56139515  0.60592699    -0.20300
C3165       C  0.80777561  0.51349048  0.70776559    -0.21800
C3166       C  0.78528646  0.50733675  0.69127018    -0.09800
C3167       C  0.77935785  0.49172611  0.66517065     0.29100
C3168       C  0.79630942  0.48336114  0.65510546    -0.21800
C3169       C  0.81953959  0.49055394  0.67078347    -0.09800
C3170       C  0.82467433  0.50510905  0.69785881     0.29100
F3171       F  0.84651640  0.51219767  0.71413443    -0.20300
H3172       H  0.81277793  0.52571825  0.72783121     0.17400
H3173       H  0.79193573  0.47248292  0.63398167     0.17400
F3174       F  0.75845264  0.48650164  0.64794733    -0.20300
C3175       C  0.97116783  0.78040875  0.86932638    -0.21800
C3176       C  0.97875628  0.79307380  0.89764314    -0.09800
C3177       C  0.00459855  0.81219272  0.90217872     0.29100
C3178       C  0.02206104  0.82012275  0.87790318    -0.21800
C3179       C  0.01403763  0.80916383  0.84883566    -0.09800
C3180       C  0.98878083  0.78843169  0.84486592     0.29100
F3181       F  0.98046728  0.77800425  0.81671698    -0.20300
H3182       H  0.95109828  0.76592002  0.86542387     0.17400
H3183       H  0.04146747  0.83641921  0.88116883     0.17400
F3184       F  0.01229364  0.82472467  0.92940363    -0.20300
C3185       C  0.98517669  0.82829527  0.71716564    -0.21800
C3186       C  0.99577861  0.84668070  0.74060786    -0.09800
C3187       C  0.98073155  0.85646321  0.75357332     0.29100
C3188       C  0.95490112  0.84654295  0.74444508    -0.21800
C3189       C  0.94387016  0.82670470  0.72252856    -0.09800
C3190       C  0.95961658  0.81842245  0.70817943     0.29100
F3191       F  0.94999600  0.79996209  0.68611552    -0.20300
H3192       H  0.99640974  0.82059495  0.70672027     0.17400
H3193       H  0.94311737  0.85316100  0.75582541     0.17400
F3194       F  0.99019482  0.87385762  0.77678709    -0.20300
C3195       C  0.14306628  0.80371059  0.81769390    -0.21800
C3196       C  0.13643963  0.78137770  0.80044196    -0.09800
C3197       C  0.11527032  0.77212042  0.78045132     0.29100
C3198       C  0.10226915  0.78615092  0.77643317    -0.21800
C3199       C  0.11007005  0.80946185  0.79243810    -0.09800
C3200       C  0.13008360  0.81750731  0.81396185     0.29100
F3201       F  0.13759763  0.83907726  0.83110191    -0.20300
H3202       H  0.15891258  0.81093927  0.83379377     0.17400
H3203       H  0.08678059  0.77932115  0.75990124     0.17400
F3204       F  0.10817144  0.75052659  0.76352674    -0.20300
C3205       C  0.16379628  0.66235381  0.86916203    -0.21800
C3206       C  0.17988062  0.67192332  0.84329430    -0.09800
C3207       C  0.18828584  0.65598015  0.82927126     0.29100
C3208       C  0.17874671  0.63036484  0.83928923    -0.21800
C3209       C  0.16073364  0.62029560  0.86329751    -0.09800
C3210       C  0.15427921  0.63692001  0.87897630     0.29100
F3211       F  0.13754347  0.62808115  0.90295847    -0.20300
H3212       H  0.15724861  0.67407232  0.88084207     0.17400
H3213       H  0.18398498  0.61791238  0.82689805     0.17400
F3214       F  0.20424972  0.66440546  0.80458643    -0.20300
C3215       C  0.14418485  0.69276750  0.70436628    -0.21800
C3216       C  0.14095587  0.68473987  0.73505691    -0.09800
C3217       C  0.12618023  0.65827602  0.74188912     0.29100
C3218       C  0.11721422  0.64008976  0.71818203    -0.21800
C3219       C  0.12247174  0.64808400  0.68749630    -0.09800
C3220       C  0.13471127  0.67458457  0.68067238     0.29100
F3221       F  0.14012336  0.68289901  0.65125088    -0.20300
H3222       H  0.15553136  0.71312145  0.69873601     0.17400
H3223       H  0.10765916  0.61971612  0.72380329     0.17400
F3224       F  0.12297217  0.64992514  0.77130835    -0.20300
C3225       C  0.21265555  0.70712829  0.58733211    -0.21800
C3226       C  0.20375124  0.71695946  0.56420282    -0.09800
C3227       C  0.18080362  0.70003946  0.54879406     0.29100
C3228       C  0.16643445  0.67411180  0.55731963    -0.21800
C3229       C  0.17421171  0.66445282  0.58188520    -0.09800
C3230       C  0.19792822  0.68114435  0.59639122     0.29100
F3231       F  0.20621091  0.67287813  0.62042687    -0.20300
H3232       H  0.23025561  0.71988907  0.59952452     0.17400
H3233       H  0.14839866  0.66191770  0.54560373     0.17400
F3234       F  0.17183140  0.70874653  0.52590317    -0.20300
C3235       C  0.35836410  0.84758753  0.62416891    -0.21800
C3236       C  0.37414409  0.83999304  0.60871512    -0.09800
C3237       C  0.36300852  0.82041133  0.58655329     0.29100
C3238       C  0.33700396  0.81033780  0.57824781    -0.21800
C3239       C  0.32166771  0.81936184  0.59226319    -0.09800
C3240       C  0.33245721  0.83733290  0.61636936     0.29100
F3241       F  0.31858165  0.84638907  0.63125002    -0.20300
H3242       H  0.36642169  0.86232560  0.64176153     0.17400
H3243       H  0.32929882  0.79649791  0.55970172     0.17400
F3244       F  0.37766172  0.81247253  0.57134942    -0.20300
C3245       C  0.21668383  0.77408275  0.65545571    -0.21800
C3246       C  0.22279741  0.79915457  0.64695554    -0.09800
C3247       C  0.22667765  0.81740522  0.66967388     0.29100
C3248       C  0.22389661  0.81025687  0.70057489    -0.21800
C3249       C  0.21815047  0.78520259  0.70890402    -0.09800
C3250       C  0.21466549  0.76720059  0.68605515     0.29100
F3251       F  0.20880140  0.74273048  0.69321597    -0.20300
H3252       H  0.21397972  0.75982879  0.63827196     0.17400
H3253       H  0.22663337  0.82433553  0.71798156     0.17400
F3254       F  0.23266135  0.84180235  0.66202209    -0.20300
C3255       C  0.22865639  0.78958648  0.93791654    -0.21800
C3256       C  0.20858841  0.78142055  0.95925825    -0.09800
C3257       C  0.18296229  0.77044435  0.94924070     0.29100
C3258       C  0.17751883  0.76628868  0.91791602    -0.21800
C3259       C  0.19770458  0.77377946  0.89656999    -0.09800
C3260       C  0.22342490  0.78610769  0.90688927     0.29100
F3261       F  0.24358700  0.79368625  0.88719209    -0.20300
H3262       H  0.24855037  0.79831523  0.94538765     0.17400
H3263       H  0.15762760  0.75699999  0.91037380     0.17400
F3264       F  0.16329563  0.76260589  0.96968133    -0.20300
C3265       C  0.00873235  0.87496397  0.49501872    -0.21800
C3266       C  0.99421642  0.84947732  0.50608147    -0.09800
C3267       C  0.00330794  0.83766553  0.02387303     0.29100
C3268       C  0.02858088  0.85372148  0.03355679    -0.21800
C3269       C  0.04536234  0.88188114  0.52620417    -0.09800
C3270       C  0.03424284  0.89116818  0.50504102     0.29100
F3271       F  0.04865779  0.91481493  0.49206713    -0.20300
H3272       H  0.00108775  0.88161127  0.47697191     0.17400
H3273       H  0.03720487  0.84569844  0.04856069     0.17400
F3274       F  0.99063327  0.81279445  0.03385697    -0.20300
C3275       C  0.17990488  0.86503744  0.51608145    -0.21800
C3276       C  0.18879147  0.88947023  0.52942612    -0.09800
C3277       C  0.21178062  0.90046452  0.54659610     0.29100
C3278       C  0.22453920  0.88633555  0.55169817    -0.21800
C3279       C  0.21431676  0.86113995  0.53998985    -0.09800
C3280       C  0.19232726  0.85099355  0.52139705     0.29100
F3281       F  0.18242932  0.82709438  0.50882751    -0.20300
H3282       H  0.16260971  0.85624420  0.50220056     0.17400
H3283       H  0.24152061  0.89446125  0.56608466     0.17400
F3284       F  0.22099935  0.92399501  0.55989480    -0.20300
C3285       C  0.09196536  0.89309278  0.89439877    -0.21800
C3286       C  0.11001898  0.89706289  0.87131842    -0.09800
C3287       C  0.13604806  0.90665992  0.87958499     0.29100
C3288       C  0.14327180  0.91096163  0.91056564    -0.21800
C3289       C  0.12464720  0.90552836  0.93346091    -0.09800
C3290       C  0.09905101  0.89721441  0.92490845     0.29100
F3291       F  0.08072659  0.89316063  0.94613515    -0.20300
H3292       H  0.07180589  0.88625473  0.88898900     0.17400
H3293       H  0.16327225  0.91781647  0.91674658     0.17400
F3294       F  0.15430863  0.91153589  0.85798908    -0.20300
C3295       C  0.07967714  0.86254448  0.63190408    -0.21800
C3296       C  0.10530109  0.87599115  0.62166524    -0.09800
C3297       C  0.12527646  0.87999004  0.64162185     0.29100
C3298       C  0.11964876  0.87190519  0.67213755    -0.21800
C3299       C  0.09398953  0.85940559  0.68296172    -0.09800
C3300       C  0.07392660  0.85396796  0.66212381     0.29100
F3301       F  0.04883632  0.84184426  0.67125098    -0.20300
H3302       H  0.06412429  0.85944410  0.61665550     0.17400
H3303       H  0.13546029  0.87631744  0.68756991     0.17400
F3304       F  0.15027129  0.89328551  0.63218927    -0.20300
C3305       C  0.52683249  0.18522901  0.69000015    -0.21800
C3306       C  0.50908197  0.18538813  0.66898719    -0.09800
C3307       C  0.51004028  0.17835745  0.63841810     0.29100
C3308       C  0.52772250  0.17048701  0.62956538    -0.21800
C3309       C  0.54436970  0.16900991  0.65106946    -0.09800
C3310       C  0.54397635  0.17672457  0.68129961     0.29100
F3311       F  0.55934746  0.17486805  0.70273588    -0.20300
H3312       H  0.52635447  0.19016112  0.71376593     0.17400
H3313       H  0.52737277  0.16407287  0.60627560     0.17400
F3314       F  0.49337815  0.17828623  0.61734721    -0.20300
C3315       C  0.20052872  0.01076018  0.59248365    -0.21800
C3316       C  0.18710909  0.98443736  0.60023237    -0.09800
C3317       C  0.18495278  0.97720211  0.63117852     0.29100
C3318       C  0.19398252  0.99603575  0.65407229    -0.21800
C3319       C  0.20460774  0.02220683  0.64638793    -0.09800
C3320       C  0.20894826  0.02958961  0.61542195     0.29100
F3321       F  0.21958941  0.05484309  0.60738424    -0.20300
H3322       H  0.20216484  0.01668901  0.56877699     0.17400
H3323       H  0.19033686  0.98997251  0.67779727     0.17400
F3324       F  0.17219951  0.95186605  0.63930334    -0.20300
C3325       C  0.31581352  0.14132747  0.72928121    -0.21800
C3326       C  0.30064609  0.11568807  0.71908272    -0.09800
C3327       C  0.31341249  0.10336194  0.70620213     0.29100
C3328       C  0.34058062  0.11709254  0.70228355    -0.21800
C3329       C  0.35529860  0.14326391  0.71099961    -0.09800
C3330       C  0.34251583  0.15487960  0.72533249     0.29100
F3331       F  0.35585313  0.17970573  0.73536277    -0.20300
H3332       H  0.30692205  0.15136175  0.73996684     0.17400
H3333       H  0.34993266  0.10764423  0.69129187     0.17400
F3334       F  0.29968100  0.07856223  0.69629220    -0.20300
C3335       C  0.12507717  0.96771780  0.78283174    -0.21800
C3336       C  0.11385473  0.94881958  0.75987220    -0.09800
C3337       C  0.11770553  0.95657417  0.72911117     0.29100
C3338       C  0.13330167  0.98274071  0.72147328    -0.21800
C3339       C  0.14601463  0.00151349  0.74433265    -0.09800
C3340       C  0.14133273  0.99382849  0.77518640     0.29100
F3341       F  0.15300459  0.01142490  0.79785408    -0.20300
H3342       H  0.12242751  0.96203149  0.80669054     0.17400
H3343       H  0.13678413  0.98810972  0.69752871     0.17400
F3344       F  0.10700817  0.93873702  0.70647702    -0.20300
C3345       C  0.47636678  0.85227211  0.87593624    -0.21800
C3346       C  0.45210405  0.84277534  0.86209926    -0.09800
C3347       C  0.44359815  0.82214290  0.84128791     0.29100
C3348       C  0.46010490  0.81264789  0.83288188    -0.21800
C3349       C  0.48518583  0.82367884  0.84511039    -0.09800
C3350       C  0.49273341  0.84293745  0.86759910     0.29100
F3351       F  0.51658240  0.85379600  0.88036251    -0.20300
H3352       H  0.48321095  0.86789236  0.89241387     0.17400
H3353       H  0.45403170  0.79806991  0.81516761     0.17400
F3354       F  0.42040806  0.81271327  0.82723500    -0.20300
C3355       C  0.42569353  0.91831070  0.75359452    -0.21800
C3356       C  0.42871338  0.90267851  0.77524520    -0.09800
C3357       C  0.43376897  0.88325323  0.76528747     0.29100
C3358       C  0.43589343  0.87963167  0.73425657    -0.21800
C3359       C  0.43376924  0.89569327  0.71247775    -0.09800
C3360       C  0.42861055  0.91513473  0.72229962     0.29100
F3361       F  0.42587579  0.93060290  0.70174045    -0.20300
H3362       H  0.42151582  0.93318251  0.76095317     0.17400
H3363       H  0.43956543  0.86434133  0.72726984     0.17400
F3364       F  0.43599207  0.86724990  0.78556622    -0.20300
C3365       C  0.46960601  0.89430489  0.00560159    -0.21800
C3366       C  0.46197859  0.90720256  0.52477428    -0.09800
C3367       C  0.44747559  0.91733890  0.51162078     0.29100
C3368       C  0.44333968  0.91767915  0.98042197    -0.21800
C3369       C  0.45033487  0.90296651  0.96189784    -0.09800
C3370       C  0.46363670  0.89141169  0.97451768     0.29100
F3371       F  0.47012027  0.87672565  0.95693580    -0.20300
H3372       H  0.48241345  0.88639881  0.51591338     0.17400
H3373       H  0.43268608  0.92630955  0.97088952     0.17400
F3374       F  0.43817127  0.92971986  0.52909091    -0.20300
C3375       C  0.30252313  0.85806844  0.95629035    -0.21800
C3376       C  0.30967031  0.85787259  0.98678861    -0.09800
C3377       C  0.33590614  0.86943846  0.99438431     0.29100
C3378       C  0.35459617  0.87902966  0.97129950    -0.21800
C3379       C  0.34735614  0.87753123  0.94049080    -0.09800
C3380       C  0.32129079  0.86821425  0.93322715     0.29100
F3381       F  0.31368163  0.86621101  0.90364205    -0.20300
H3382       H  0.28229763  0.84894782  0.95015117     0.17400
H3383       H  0.37458963  0.88595094  0.97726010     0.17400
F3384       F  0.34294790  0.86817104  0.52321069    -0.20300
C3385       C  0.29008540  0.78463236  0.83973408    -0.21800
C3386       C  0.28065682  0.79116779  0.81390285    -0.09800
C3387       C  0.29745143  0.81366039  0.79747183     0.29100
C3388       C  0.32269302  0.82991233  0.80747719    -0.21800
C3389       C  0.33184908  0.82446657  0.83441895    -0.09800
C3390       C  0.31540761  0.80118927  0.85011679     0.29100
F3391       F  0.32309321  0.79519711  0.87653541    -0.20300
H3392       H  0.27735717  0.76759478  0.85296386     0.17400
H3393       H  0.33471240  0.84750317  0.79475807     0.17400
F3394       F  0.28909847  0.82046096  0.77217662    -0.20300
C3395       C  0.63102774  0.15360797  0.87745516    -0.21800
C3396       C  0.61653314  0.16391052  0.89044894    -0.09800
C3397       C  0.62866837  0.18462381  0.91102593     0.29100
C3398       C  0.65428018  0.19340176  0.92010251    -0.21800
C3399       C  0.66817120  0.18172230  0.90871778    -0.09800
C3400       C  0.65646346  0.16232536  0.88631813     0.29100
F3401       F  0.66893481  0.15059931  0.87415407    -0.20300
H3402       H  0.62220427  0.13783945  0.86118588     0.17400
H3403       H  0.66271963  0.20838437  0.93734595     0.17400
F3404       F  0.61524992  0.19496375  0.92413919    -0.20300
C3405       C  0.47826525  0.01503834  0.90057220    -0.21800
C3406       C  0.47066099  0.03100374  0.88569248    -0.09800
C3407       C  0.44777517  0.01937339  0.86831949     0.29100
C3408       C  0.43357283  0.99226560  0.86496699    -0.21800
C3409       C  0.44222550  0.97666220  0.87868082    -0.09800
C3410       C  0.46437791  0.98832147  0.89706567     0.29100
F3411       F  0.47302148  0.97382392  0.91114630    -0.20300
H3412       H  0.49555274  0.02333967  0.91446490     0.17400
H3413       H  0.41669939  0.98361672  0.85039949     0.17400
F3414       F  0.44008149  0.03415601  0.85311485    -0.20300
C3415       C  0.56163482  0.11391920  0.98786960    -0.21800
C3416       C  0.53606957  0.10615464  0.97978787    -0.09800
C3417       C  0.51699776  0.09742335  0.50326261     0.29100
C3418       C  0.52492866  0.10281297  0.53390104    -0.21800
C3419       C  0.55136234  0.11666400  0.54121633    -0.09800
C3420       C  0.56970064  0.12442922  0.51738245     0.29100
F3421       F  0.59548187  0.13764093  0.52293536    -0.20300
H3422       H  0.57592697  0.11689083  0.97060771     0.17400
H3423       H  0.51045426  0.09644418  0.55181684     0.17400
F3424       F  0.49341617  0.09559876  0.99634293    -0.20300
C3425       C  0.54322225  0.08343767  0.74308255    -0.21800
C3426       C  0.56709385  0.10163805  0.73025929    -0.09800
C3427       C  0.58609176  0.12071165  0.74910922     0.29100
C3428       C  0.58088084  0.12211796  0.77984152    -0.21800
C3429       C  0.55685998  0.10446791  0.79249943    -0.09800
C3430       C  0.53818186  0.08465169  0.77420184     0.29100
F3431       F  0.51459120  0.06769438  0.78585335    -0.20300
H3432       H  0.52833384  0.06868138  0.72887461     0.17400
H3433       H  0.59538263  0.13766445  0.79363979     0.17400
F3434       F  0.60908359  0.13915492  0.73745108    -0.20300
C3435       C  0.47918280  0.12618156  0.78537640    -0.21800
C3436       C  0.47568739  0.12972593  0.81642205    -0.09800
C3437       C  0.45997946  0.14017671  0.82455066     0.29100
C3438       C  0.45039870  0.14957657  0.80183508    -0.21800
C3439       C  0.45548881  0.14767930  0.77085355    -0.09800
C3440       C  0.46885922  0.13476163  0.76267725     0.29100
F3441       F  0.47450885  0.13312831  0.73291855    -0.20300
H3442       H  0.49130230  0.11823603  0.77872293     0.17400
H3443       H  0.44030393  0.15969706  0.80846151     0.17400
F3444       F  0.45621684  0.14383716  0.85437421    -0.20300
C3445       C  0.49502822  0.21076942  0.90086582    -0.21800
C3446       C  0.49439821  0.21685882  0.93171177    -0.09800
C3447       C  0.50509159  0.20781937  0.95380808     0.29100
C3448       C  0.51460247  0.19141115  0.94521750    -0.21800
C3449       C  0.51465905  0.18487450  0.91435240    -0.09800
C3450       C  0.50555626  0.19542407  0.89214124     0.29100
F3451       F  0.50501553  0.18927140  0.86213022    -0.20300
H3452       H  0.48667942  0.21734962  0.88356688     0.17400
H3453       H  0.52133304  0.18332921  0.96266247     0.17400
F3454       F  0.50457636  0.21328610  0.98387099    -0.20300
C3455       C  0.50106155  0.34339304  0.88837259    -0.21800
C3456       C  0.50910386  0.33351846  0.91230592    -0.09800
C3457       C  0.53382282  0.34910067  0.92497771     0.29100
C3458       C  0.54941936  0.37477958  0.91499259    -0.21800
C3459       C  0.54033410  0.38509272  0.89257905    -0.09800
C3460       C  0.51639691  0.36882604  0.87861086     0.29100
F3461       F  0.50709907  0.37798136  0.85659068    -0.20300
H3462       H  0.48210649  0.33178266  0.87834468     0.17400
H3463       H  0.56762355  0.38709148  0.92631116     0.17400
F3464       F  0.54179165  0.34041004  0.94889883    -0.20300
C3465       C  0.44679976  0.25423147  0.80561325    -0.21800
C3466       C  0.43048012  0.22977381  0.79309610    -0.09800
C3467       C  0.41094131  0.21053608  0.81126651     0.29100
C3468       C  0.40891719  0.21529576  0.84222321    -0.21800
C3469       C  0.42587748  0.23951205  0.85512255    -0.09800
C3470       C  0.44432143  0.25927757  0.83623823     0.29100
F3471       F  0.46115048  0.28293691  0.84778204    -0.20300
H3472       H  0.46194293  0.26924974  0.79179593     0.17400
H3473       H  0.39456569  0.19985213  0.85632032     0.17400
F3474       F  0.39506866  0.18664569  0.79964696    -0.20300
C3475       C  0.45312779  0.23887943  0.56848367    -0.21800
C3476       C  0.44346704  0.22034306  0.54505880    -0.09800
C3477       C  0.42842028  0.19401684  0.55297616     0.29100
C3478       C  0.42301407  0.18671524  0.58387250    -0.21800
C3479       C  0.43205352  0.20559071  0.60702327    -0.09800
C3480       C  0.44735569  0.23178042  0.59889087     0.29100
F3481       F  0.45749619  0.25074824  0.62036533    -0.20300
H3482       H  0.46513655  0.25924022  0.56337260     0.17400
H3483       H  0.41160179  0.16641060  0.58967695     0.17400
F3484       F  0.41915110  0.17542765  0.53107896    -0.20300
C3485       C  0.14563997  0.00790595  0.97319084    -0.21800
C3486       C  0.14584666  0.00052521  0.50094058    -0.09800
C3487       C  0.14781638  0.01949142  0.52177885     0.29100
C3488       C  0.15800127  0.04513888  0.51229041    -0.21800
C3489       C  0.16469688  0.05343813  0.98688254    -0.09800
C3490       C  0.15493777  0.03376800  0.96462877     0.29100
F3491       F  0.15635199  0.03978494  0.93448536    -0.20300
H3492       H  0.13969298  0.99321914  0.95562317     0.17400
H3493       H  0.16105549  0.05979403  0.52904546     0.17400
F3494       F  0.14213388  0.01384162  0.55187550    -0.20300
C3495       C  0.31605281  0.17527184  0.96250379    -0.21800
C3496       C  0.30224884  0.18852025  0.96017008    -0.09800
C3497       C  0.31607223  0.21556945  0.95655223     0.29100
C3498       C  0.34321573  0.22891725  0.95522254    -0.21800
C3499       C  0.35702649  0.21561051  0.95816630    -0.09800
C3500       C  0.34299809  0.18852097  0.96178116     0.29100
F3501       F  0.35520417  0.17456222  0.96404328    -0.20300
H3502       H  0.30592510  0.15448586  0.96556791     0.17400
H3503       H  0.35343641  0.24967834  0.95201483     0.17400
F3504       F  0.30338393  0.22901355  0.95374338    -0.20300
C3505       C  0.15716967  0.16843693  0.52715239    -0.21800
C3506       C  0.14987690  0.15086829  0.50285601    -0.09800
C3507       C  0.12614885  0.14580849  0.99310122     0.29100
C3508       C  0.10911837  0.15089779  0.49948253    -0.21800
C3509       C  0.11760517  0.17012133  0.52215252    -0.09800
C3510       C  0.14138945  0.17806279  0.53662255     0.29100
F3511       F  0.15011970  0.19634671  0.55892739    -0.20300
H3512       H  0.17596551  0.17598945  0.53769098     0.17400
H3513       H  0.09324739  0.15138941  0.99012268     0.17400
F3514       F  0.11857085  0.12950859  0.96878278    -0.20300
C3515       C  0.24761807  0.13091434  0.57735523    -0.21800
C3516       C  0.23257830  0.14064386  0.56462891    -0.09800
C3517       C  0.21577087  0.14447517  0.58384257     0.29100
C3518       C  0.21320898  0.13747414  0.61463614    -0.21800
C3519       C  0.22770809  0.12716029  0.62702398    -0.09800
C3520       C  0.24538057  0.12441275  0.60842462     0.29100
F3521       F  0.25903255  0.11371678  0.61976930    -0.20300
H3522       H  0.26059377  0.12768107  0.56306656     0.17400
H3523       H  0.19923884  0.13933826  0.62868162     0.17400
F3524       F  0.20054374  0.15340773  0.57257516    -0.20300
C3525       C  0.22030591  0.08234520  0.83560007    -0.21800
C3526       C  0.22627647  0.10224587  0.81425094    -0.09800
C3527       C  0.23019465  0.12622947  0.82484301     0.29100
C3528       C  0.22705289  0.12974415  0.85566659    -0.21800
C3529       C  0.22017718  0.10970548  0.87673836    -0.09800
C3530       C  0.21725648  0.08603524  0.86676052     0.29100
F3531       F  0.20988514  0.06611980  0.88666683    -0.20300
H3532       H  0.21698894  0.06364875  0.82801173     0.17400
H3533       H  0.22951038  0.14815169  0.86311451     0.17400
F3534       F  0.23663950  0.14628508  0.80540542    -0.20300
C3535       C  0.46071924  0.66254197  0.57181338    -0.21800
C3536       C  0.48338874  0.67874985  0.58840965    -0.09800
C3537       C  0.48787113  0.66931163  0.61587244     0.29100
C3538       C  0.47159069  0.64371334  0.62467082    -0.21800
C3539       C  0.45031449  0.62693257  0.60672712    -0.09800
C3540       C  0.44420343  0.63679708  0.58094727     0.29100
F3541       F  0.42373952  0.62104218  0.56315799    -0.20300
H3542       H  0.45665297  0.66922352  0.55066043     0.17400
H3543       H  0.47643869  0.63652113  0.64487162     0.17400
F3544       F  0.50893737  0.68418344  0.63331811    -0.20300
C3545       C  0.29440525  0.51824583  0.57796266    -0.21800
C3546       C  0.28368996  0.49703475  0.55795972    -0.09800
C3547       C  0.29968062  0.48792329  0.54622429     0.29100
C3548       C  0.32518618  0.49855536  0.55599515    -0.21800
C3549       C  0.33545915  0.51838443  0.57793517    -0.09800
C3550       C  0.32004249  0.52881855  0.58803523     0.29100
F3551       F  0.32918996  0.54831043  0.60879389    -0.20300
H3552       H  0.28250556  0.52563574  0.58720054     0.17400
H3553       H  0.33646559  0.49021487  0.54745808     0.17400
F3554       F  0.29037612  0.46799576  0.52600533    -0.20300
C3555       C  0.45523723  0.57479275  0.98417994    -0.21800
C3556       C  0.44479456  0.55462786  0.96292467    -0.09800
C3557       C  0.43274003  0.52891537  0.97302971     0.29100
C3558       C  0.42051465  0.52220201  0.50479958    -0.21800
C3559       C  0.43982455  0.53837002  0.52551957    -0.09800
C3560       C  0.46412777  0.55719124  0.51422000     0.29100
F3561       F  0.48355235  0.57268772  0.53346891    -0.20300
H3562       H  0.46444498  0.59471536  0.97662699     0.17400
H3563       H  0.40175707  0.50739590  0.51296234     0.17400
F3564       F  0.42227758  0.50912221  0.95267894    -0.20300
C3565       C  0.47291240  0.57250771  0.72143333    -0.21800
C3566       C  0.44850570  0.56782043  0.71201058    -0.09800
C3567       C  0.42990453  0.56448034  0.73409854     0.29100
C3568       C  0.43559887  0.56562206  0.76499420    -0.21800
C3569       C  0.46008570  0.57083081  0.77447154    -0.09800
C3570       C  0.47887401  0.57444205  0.75256826     0.29100
F3571       F  0.50269472  0.57937048  0.76126408    -0.20300
H3572       H  0.48739734  0.57495707  0.70470884     0.17400
H3573       H  0.42098667  0.56308256  0.78160560     0.17400
F3574       F  0.40599528  0.55964257  0.72594476    -0.20300
C3575       C  0.63053594  0.46188006  0.63115631    -0.21800
C3576       C  0.61101035  0.45165772  0.65358880    -0.09800
C3577       C  0.61796307  0.45581774  0.68459635     0.29100
C3578       C  0.64384843  0.47113478  0.69294764    -0.21800
C3579       C  0.66318343  0.48331616  0.67057010    -0.09800
C3580       C  0.65646115  0.47796234  0.63952812     0.29100
F3581       F  0.67475585  0.48906424  0.61737458    -0.20300
H3582       H  0.62551387  0.45898999  0.60712095     0.17400
H3583       H  0.64852207  0.47514194  0.71699217     0.17400
F3584       F  0.59955184  0.44611774  0.70679312    -0.20300
C3585       C  0.51900831  0.41368148  0.75179942    -0.21800
C3586       C  0.52004349  0.43326526  0.73312798    -0.09800
C3587       C  0.52616952  0.45718104  0.74644954     0.29100
C3588       C  0.53248444  0.46170820  0.77760766    -0.21800
C3589       C  0.53333349  0.44268554  0.79555987    -0.09800
C3590       C  0.52596831  0.41843537  0.78256051     0.29100
F3591       F  0.52662626  0.39966457  0.79932718    -0.20300
H3592       H  0.51440014  0.39514677  0.74212109     0.17400
H3593       H  0.53829198  0.48057164  0.78720032     0.17400
F3594       F  0.52676349  0.47636227  0.72920371    -0.20300
C3595       C  0.58404463  0.48352191  0.50415100    -0.21800
C3596       C  0.56385501  0.46524552  0.98196254    -0.09800
C3597       C  0.56023084  0.44091017  0.99014876     0.29100
C3598       C  0.53508535  0.44654716  0.52498885    -0.21800
C3599       C  0.55590372  0.45702576  0.54536190    -0.09800
C3600       C  0.58032057  0.47624095  0.53511335     0.29100
F3601       F  0.60080555  0.48651963  0.55440913    -0.20300
H3602       H  0.60329046  0.49732559  0.49622191     0.17400
H3603       H  0.51605286  0.43195028  0.53271947     0.17400
F3604       F  0.55880329  0.42393941  0.96843148    -0.20300
C3605       C  0.45427851  0.30891380  0.55130755    -0.21800
C3606       C  0.45241217  0.31630350  0.52149334    -0.09800
C3607       C  0.45587749  0.34109943  0.51633573     0.29100
C3608       C  0.46365295  0.35905175  0.54046483    -0.21800
C3609       C  0.46767191  0.35216587  0.56980197    -0.09800
C3610       C  0.46178351  0.32661433  0.57529472     0.29100
F3611       F  0.46602780  0.31961744  0.60328153    -0.20300
H3612       H  0.45171215  0.28992613  0.55559651     0.17400
H3613       H  0.46878004  0.37884947  0.53565444     0.17400
F3614       F  0.49360001  0.35259657  0.98832169    -0.20300
C3615       C  0.47946022  0.50052852  0.62354581    -0.21800
C3616       C  0.45255539  0.48836488  0.62772539    -0.09800
C3617       C  0.43886529  0.46167108  0.63409661     0.29100
C3618       C  0.45193462  0.44758443  0.63559057    -0.21800
C3619       C  0.47879979  0.45979379  0.63064042    -0.09800
C3620       C  0.49242767  0.48660048  0.62493699     0.29100
F3621       F  0.51847709  0.49969412  0.62116373    -0.20300
H3622       H  0.49071660  0.52106479  0.61888346     0.17400
H3623       H  0.44099710  0.42707948  0.64050315     0.17400
F3624       F  0.41293448  0.44913377  0.63868475    -0.20300
C3625       C  0.48285543  0.30275576  0.70547173    -0.21800
C3626       C  0.49034672  0.28664926  0.69063399    -0.09800
C3627       C  0.50899735  0.29709409  0.66716799     0.29100
C3628       C  0.51852927  0.32281407  0.65749520    -0.21800
C3629       C  0.50952625  0.33825392  0.67113790    -0.09800
C3630       C  0.49229453  0.32819531  0.69596894     0.29100
F3631       F  0.48361392  0.34265188  0.71023358    -0.20300
H3632       H  0.46874329  0.29523749  0.72383977     0.17400
H3633       H  0.53153150  0.33004646  0.63805293     0.17400
F3634       F  0.51634054  0.28193970  0.65200904    -0.20300
C3635       C  0.21412035  0.51552792  0.84035833    -0.21800
C3636       C  0.20530439  0.49459206  0.82011762    -0.09800
C3637       C  0.18018746  0.48354681  0.80837096     0.29100
C3638       C  0.16394136  0.49294257  0.81711863    -0.21800
C3639       C  0.17206495  0.51317432  0.83846249    -0.09800
C3640       C  0.19755513  0.52463190  0.84980691     0.29100
F3641       F  0.20617362  0.54387500  0.87085997    -0.20300
H3642       H  0.23335631  0.52400359  0.84988953     0.17400
H3643       H  0.14448212  0.48346677  0.80811106     0.17400
F3644       F  0.17111154  0.46310827  0.78891121    -0.20300
C3645       C  0.20671861  0.42054162  0.90995274    -0.21800
C3646       C  0.23214305  0.43150206  0.89866512    -0.09800
C3647       C  0.25293288  0.44474316  0.91916835     0.29100
C3648       C  0.24827935  0.44820875  0.94957484    -0.21800
C3649       C  0.22302104  0.43809871  0.96031622    -0.09800
C3650       C  0.20216286  0.42368055  0.94067864     0.29100
F3651       F  0.17751700  0.41401245  0.95077882    -0.20300
H3652       H  0.19038167  0.41034191  0.89479391     0.17400
H3653       H  0.26447250  0.45936698  0.96466425     0.17400
F3654       F  0.27786528  0.45556244  0.90968915    -0.20300
C3655       C  0.18421181  0.42771016  0.66967732    -0.21800
C3656       C  0.20335860  0.43897339  0.64689163    -0.09800
C3657       C  0.22921923  0.45500564  0.65568927     0.29100
C3658       C  0.23574771  0.45949142  0.68641587    -0.21800
C3659       C  0.21685458  0.44814095  0.70940167    -0.09800
C3660       C  0.19088489  0.43201450  0.70078468     0.29100
F3661       F  0.17199910  0.42057184  0.72222126    -0.20300
H3662       H  0.16416177  0.41541242  0.66340720     0.17400
H3663       H  0.25592296  0.47185371  0.69213955     0.17400
F3664       F  0.24834093  0.46702858  0.63459347    -0.20300
C3665       C  0.30982717  0.45693137  0.70841973    -0.21800
C3666       C  0.31723275  0.46628591  0.73829344    -0.09800
C3667       C  0.34315380  0.48423308  0.74442339     0.29100
C3668       C  0.36099899  0.49440824  0.72053052    -0.21800
C3669       C  0.35323239  0.48690101  0.69019569    -0.09800
C3670       C  0.32782528  0.46703249  0.68438831     0.29100
F3671       F  0.31973918  0.45943626  0.65527934    -0.20300
H3672       H  0.28974759  0.44343760  0.70335373     0.17400
H3673       H  0.38057616  0.50938153  0.72549367     0.17400
F3674       F  0.35066327  0.49356841  0.77318770    -0.20300
C3675       C  0.33800196  0.51030555  0.86757063    -0.21800
C3676       C  0.32716613  0.51798352  0.84436280    -0.09800
C3677       C  0.34143391  0.54344846  0.83291185     0.29100
C3678       C  0.36702655  0.55994306  0.84274044    -0.21800
C3679       C  0.37849274  0.55117761  0.86408725    -0.09800
C3680       C  0.36319284  0.52661749  0.87744059     0.29100
F3681       F  0.37314031  0.51768899  0.89896754    -0.20300
H3682       H  0.32735724  0.49096146  0.87701364     0.17400
H3683       H  0.37839583  0.57871152  0.83209023     0.17400
F3684       F  0.33158736  0.55153452  0.81034654    -0.20300
C3685       C  0.03539290  0.15554040  0.74993815    -0.21800
C3686       C  0.04499778  0.17327834  0.77415505    -0.09800
C3687       C  0.02815123  0.17931915  0.78994254     0.29100
C3688       C  0.00270463  0.16929438  0.78027980    -0.21800
C3689       C  0.99354257  0.15341259  0.75425916    -0.09800
C3690       C  0.00988903  0.14575888  0.73983586     0.29100
F3691       F  0.00196601  0.13036165  0.71470921    -0.20300
H3692       H  0.04812910  0.15070764  0.73748664     0.17400
H3693       H  0.99065963  0.17534553  0.79215732     0.17400
F3694       F  0.03669009  0.19597887  0.81394059    -0.20300
C3695       C  0.19618413  0.35298368  0.76995485    -0.21800
C3696       C  0.21671834  0.36459475  0.79080561    -0.09800
C3697       C  0.22367504  0.34864897  0.80718688     0.29100
C3698       C  0.20950622  0.32161399  0.80355713    -0.21800
C3699       C  0.18811302  0.31013792  0.78384687    -0.09800
C3700       C  0.18202426  0.32623133  0.76655255     0.29100
F3701       F  0.16209536  0.31610919  0.74643021    -0.20300
H3702       H  0.19050388  0.36463462  0.75668654     0.17400
H3703       H  0.21456354  0.30961812  0.81709138     0.17400
F3704       F  0.24323929  0.35896827  0.82774773    -0.20300
C3705       C  0.14855021  0.11647488  0.75375777    -0.21800
C3706       C  0.16413262  0.12274928  0.72749421    -0.09800
C3707       C  0.16973728  0.14520003  0.71105899     0.29100
C3708       C  0.16120455  0.16177552  0.72158610    -0.21800
C3709       C  0.14709517  0.15663466  0.74900611    -0.09800
C3710       C  0.14015687  0.13330366  0.76459142     0.29100
F3711       F  0.12695332  0.12763512  0.79144309    -0.20300
H3712       H  0.14444640  0.09954786  0.76706952     0.17400
H3713       H  0.16683354  0.17940088  0.70894152     0.17400
F3714       F  0.18471518  0.15183330  0.68550749    -0.20300
C3715       C  0.20455456  0.20885710  0.85081761    -0.21800
C3716       C  0.18417230  0.21360048  0.85695575    -0.09800
C3717       C  0.17604474  0.21273557  0.88741103     0.29100
C3718       C  0.18590128  0.20418797  0.91060099    -0.21800
C3719       C  0.20419188  0.19673530  0.90390751    -0.09800
C3720       C  0.21449835  0.20033428  0.87423402     0.29100
F3721       F  0.23215023  0.19312061  0.86730355    -0.20300
H3722       H  0.21107041  0.20938989  0.82752637     0.17400
H3723       H  0.17773539  0.20140528  0.93341421     0.17400
F3724       F  0.15706675  0.21815124  0.89436040    -0.20300
C3725       C  0.12674007  0.21491836  0.63912096    -0.21800
C3726       C  0.11856901  0.23056314  0.62469051    -0.09800
C3727       C  0.11671930  0.24953976  0.64182680     0.29100
C3728       C  0.12213162  0.25211936  0.67322948    -0.21800
C3729       C  0.13026363  0.23640937  0.68760852    -0.09800
C3730       C  0.13295919  0.21807453  0.67022980     0.29100
F3731       F  0.14016096  0.20220984  0.68375616    -0.20300
H3732       H  0.12791769  0.19996901  0.62633467     0.17400
H3733       H  0.11972621  0.26616711  0.68641366     0.17400
F3734       F  0.10820735  0.26446587  0.62859873    -0.20300
C3735       C  0.07831953  0.22452736  0.92079204    -0.21800
C3736       C  0.09976438  0.24186225  0.93806346    -0.09800
C3737       C  0.12385090  0.25657135  0.92361599     0.29100
C3738       C  0.12638272  0.25369621  0.89220951    -0.21800
C3739       C  0.10516631  0.23543246  0.87526890    -0.09800
C3740       C  0.08107562  0.22090837  0.88972991     0.29100
F3741       F  0.06039690  0.20278636  0.87396686    -0.20300
H3742       H  0.05972903  0.21279813  0.93175396     0.17400
H3743       H  0.14518269  0.26467623  0.88145455     0.17400
F3744       F  0.14491079  0.27332383  0.93996898    -0.20300
loop_ 
_geom_bond_atom_site_label_1 
_geom_bond_atom_site_label_2 
_geom_bond_distance 
_geom_bond_site_symmetry_2 
_ccdc_geom_bond_type 
O1           C16   1.269       .  A
O1           Al9   1.931       .  S
C2           O12   1.272       .  A
C2            O3   1.267       .  A
C2         C1857   1.470       .  S
O3           Al5   1.879       .  S
O4            C6   1.259       .  A
O4           Al5   1.913       .  S
Al5          O13   1.893       .  S
Al5          O15   1.893       .  S
Al5          O14   1.785       .  S
C6           O19   1.263       .  A
C6         C1814   1.485       .  S
O7           C17   1.263       .  A
O7           Al9   1.929       .  S
O8           C21   1.265       .  A
O8          Al18   1.925       .  S
Al9          O22   1.883       .  S
Al9          O19   1.932       .  S
Al9          O14   1.783       .  S
O10          C17   1.258       .  A
O10         Al18   1.890       .  S
O11          C20   1.256       .  A
O11         Al18   1.917       .  S
O12         Al18   1.932       .  S
O13          C20   1.253       .  A
O14         Al18   1.783       .  S
O15          C16   1.263       .  A
C16        C1867   1.459       .  S
C17        C1837   1.494       .  S
C20        C1827   1.480       .  S
C21          O22   1.260       .  A
C21        C1844   1.483       .  S
O23          C38   1.261       .  A
O23         Al31   1.875       .  S
C24          O34   1.261       .  A
C24          O25   1.270       .  A
C24        C1774   1.478       .  S
O25         Al27   1.935       .  S
O26          C28   1.254       .  A
O26         Al27   1.885       .  S
Al27         O35   1.879       .  S
Al27         O37   1.928       .  S
Al27         O36   1.784       .  S
C28          O41   1.259       .  A
C28        C1764   1.477       .  S
O29          C39   1.264       .  A
O29         Al31   1.910       .  S
O30          C43   1.265       .  A
O30         Al40   1.916       .  S
Al31         O44   1.913       .  S
Al31         O41   1.927       .  S
Al31         O36   1.788       .  S
O32          C39   1.264       .  A
O32         Al40   1.907       .  S
O33          C42   1.257       .  A
O33         Al40   1.922       .  S
O34         Al40   1.873       .  S
O35          C42   1.252       .  A
O36         Al40   1.790       .  S
O37          C38   1.267       .  A
C38        C1787   1.485       .  S
C39        C1804   1.477       .  S
C42        C1824   1.484       .  S
C43          O44   1.264       .  A
C43        C1794   1.466       .  S
O45          C60   1.258       .  A
O45         Al53   1.871       .  S
C46          O56   1.264       .  A
C46          O47   1.269       .  A
C46        C1714   1.484       .  S
O47         Al49   1.934       .  S
O48          C50   1.254       .  A
O48         Al49   1.881       .  S
Al49         O57   1.878       .  S
Al49         O59   1.937       .  S
Al49         O58   1.782       .  S
C50          O63   1.261       .  A
C50        C1704   1.471       .  S
O51          C61   1.264       .  A
O51         Al53   1.915       .  S
O52          C65   1.266       .  A
O52         Al62   1.915       .  S
Al53         O66   1.908       .  S
Al53         O63   1.928       .  S
Al53         O58   1.788       .  S
O54          C61   1.266       .  A
O54         Al62   1.920       .  S
O55          C64   1.263       .  A
O55         Al62   1.941       .  S
O56         Al62   1.888       .  S
O57          C64   1.253       .  A
O58         Al62   1.788       .  S
O59          C60   1.267       .  A
C60        C1727   1.487       .  S
C61        C1757   1.486       .  S
C64        C1747   1.492       .  S
C65          O66   1.265       .  A
C65        C1737   1.469       .  S
O67          C82   1.269       .  A
O67         Al75   1.923       .  S
C68          O78   1.274       .  A
C68          O69   1.263       .  A
C68        C1687   1.474       .  S
O69         Al71   1.862       .  S
O70          C72   1.261       .  A
O70         Al71   1.919       .  S
Al71         O79   1.901       .  S
Al71         O81   1.897       .  S
Al71         O80   1.785       .  S
C72          O85   1.262       .  A
C72        C1667   1.475       .  S
O73          C83   1.259       .  A
O73         Al75   1.921       .  S
O74          C87   1.268       .  A
O74         Al84   1.933       .  S
Al75         O88   1.874       .  S
Al75         O85   1.921       .  S
Al75         O80   1.781       .  S
O76          C83   1.258       .  A
O76         Al84   1.896       .  S
O77          C86   1.255       .  A
O77         Al84   1.912       .  S
O78         Al84   1.940       .  S
O79          C86   1.255       .  A
O80         Al84   1.783       .  S
O81          C82   1.265       .  A
C82        C1694   1.473       .  S
C83        C1677   1.497       .  S
C86        C1744   1.488       .  S
C87          O88   1.260       .  A
C87        C1797   1.476       .  S
O89         C104   1.258       .  A
O89         Al97   1.865       .  S
C90         O100   1.259       .  A
C90          O91   1.266       .  A
C90        C1644   1.474       .  S
O91       Al1965   1.926   1_554  S
O92          C94   1.253       .  A
O92         Al93   1.885       .  S
Al93        O101   1.882       .  S
Al93        O103   1.944       .  S
Al93       O1963   1.924       .  S
Al93        O102   1.784       .  S
C94         O107   1.259       .  A
C94        C1617   1.470       .  S
O95         C105   1.266       .  A
O95         Al97   1.911       .  S
O96         C109   1.265       .  A
O96        Al106   1.926       .  S
Al97        O110   1.895       .  S
Al97        O107   1.926       .  S
Al97        O102   1.788       .  S
O98         C105   1.266       .  A
O98        Al106   1.908       .  S
O99         C108   1.261       .  A
O99        Al106   1.925       .  S
O100      Al1978   1.877   1_554  S
O101        C108   1.257       .  A
O102       Al106   1.784       .  S
O103        C104   1.268       .  A
C104       C1657   1.470       .  S
C105       C3506   1.476       .  S
Al106      O1972   1.884       .  S
C108       C1624   1.487       .  S
C109        O110   1.260       .  A
C109       C1847   1.467       .  S
O111        C126   1.258       .  A
O111      Al1991   1.855   1_554  S
C112        O122   1.262       .  A
C112        O113   1.268       .  A
C112       C1597   1.473       .  S
O113       Al115   1.930       .  S
O114        C116   1.254       .  A
O114       Al115   1.887       .  S
Al115       O123   1.880       .  S
Al115       O125   1.926       .  S
Al115       O124   1.795       .  S
C116        O129   1.261       .  A
C116       C1574   1.480       .  S
O117        C127   1.261       .  A
O117       Al119   1.909       .  S
O118        C131   1.263       .  A
O118       Al128   1.906       .  S
Al119       O132   1.923       .  S
Al119       O129   1.933       .  S
Al119      O1983   1.860       .  S
Al119       O124   1.792       .  S
O120        C127   1.262       .  A
O120       Al128   1.911       .  S
O121        C130   1.258       .  A
O121       Al128   1.921       .  S
O122       Al128   1.879       .  S
O123        C130   1.252       .  A
O124       Al128   1.795       .  S
O125       C1998   1.264       .  A
C126       O1997   1.269   1_554  A
C126       C1604   1.481       .  S
C127       C1584   1.481       .  S
C130       C1627   1.479       .  S
C131        O132   1.267       .  A
C131       C3606   1.472       .  S
O133        C148   1.262       .  A
O133       Al141   1.884       .  S
C134        O144   1.264       .  A
C134        O135   1.272       .  A
C134       C1544   1.475       .  S
O135       Al137   1.940       .  S
O136        C138   1.259       .  A
O136       Al137   1.900       .  S
Al137       O145   1.929       .  S
Al137       O147   1.923       .  S
Al137       O146   1.786       .  S
C138        O151   1.261       .  A
C138       C1577   1.497       .  S
O139        C149   1.266       .  A
O139       Al141   1.934       .  S
O140        C153   1.264       .  A
O140       Al150   1.901       .  S
Al141       O154   1.929       .  S
Al141       O151   1.926       .  S
Al141       O146   1.780       .  S
O142        C149   1.261       .  A
O142       Al150   1.919       .  S
O143        C152   1.255       .  A
O143       Al150   1.889       .  S
O144       Al150   1.865       .  S
O145        C152   1.258       .  A
O146       Al150   1.777       .  S
O147        C148   1.267       .  A
C148       C1564   1.472       .  S
C149       C1524   1.485       .  S
C152       C1534   1.491       .  S
C153        O154   1.268       .  A
C153       C1557   1.463       .  S
O155        C170   1.258       .  A
O155       Al163   1.871       .  S
C156        O166   1.264       .  A
C156        O157   1.271       .  A
C156       C1484   1.467       .  S
O157       Al159   1.938       .  S
O158        C160   1.261       .  A
O158       Al159   1.896       .  S
Al159       O167   1.925       .  S
Al159       O169   1.929       .  S
Al159       O168   1.783       .  S
C160        O173   1.261       .  A
C160       C1517   1.489       .  S
O161        C171   1.260       .  A
O161       Al163   1.913       .  S
O162        C175   1.263       .  A
O162       Al172   1.894       .  S
Al163       O176   1.933       .  S
Al163       O173   1.917       .  S
Al163       O168   1.778       .  S
O164        C171   1.261       .  A
O164       Al172   1.914       .  S
O165        C174   1.258       .  A
O165       Al172   1.899       .  S
O166       Al172   1.874       .  S
O167        C174   1.260       .  A
O168       Al172   1.773       .  S
O169        C170   1.267       .  A
C170       C1507   1.468       .  S
C171       C1474   1.472       .  S
C174       C1537   1.483       .  S
C175        O176   1.268       .  A
C175       C1497   1.461       .  S
O177        C192   1.263       .  A
O177       Al185   1.891       .  S
C178        O188   1.262       .  A
C178        O179   1.269       .  A
C178       C1654   1.481       .  S
O179       Al181   1.935       .  S
O180        C182   1.260       .  A
O180       Al181   1.906       .  S
Al181       O189   1.925       .  S
Al181       O191   1.931       .  S
Al181       O190   1.788       .  S
C182        O195   1.261       .  A
C182       C1467   1.485       .  S
O183        C193   1.266       .  A
O183       Al185   1.932       .  S
O184        C197   1.260       .  A
O184       Al194   1.898       .  S
Al185       O198   1.926       .  S
Al185       O195   1.917       .  S
Al185       O190   1.781       .  S
O186        C193   1.264       .  A
O186       Al194   1.924       .  S
O187        C196   1.258       .  A
O187       Al194   1.895       .  S
O188       Al194   1.874       .  S
O189        C196   1.260       .  A
O190       Al194   1.775       .  S
O191        C192   1.268       .  A
C192       C1447   1.472       .  S
C193       C1834   1.484       .  S
C196       C1454   1.486       .  S
C197        O198   1.265       .  A
C197       C1647   1.467       .  S
O199        C214   1.261       .  A
O199       Al207   1.884       .  S
C200        O210   1.264       .  A
C200        O201   1.271       .  A
C200       C1607   1.483       .  S
O201       Al203   1.939       .  S
O202        C204   1.260       .  A
O202       Al203   1.909       .  S
Al203       O211   1.938       .  S
Al203       O213   1.929       .  S
Al203       O212   1.790       .  S
C204        O217   1.259       .  A
C204       C1434   1.486       .  S
O205        C215   1.266       .  A
O205       Al207   1.937       .  S
O206        C219   1.265       .  A
O206       Al216   1.913       .  S
Al207       O220   1.916       .  S
Al207       O217   1.908       .  S
Al207       O212   1.781       .  S
O208        C215   1.261       .  A
O208       Al216   1.908       .  S
O209        C218   1.253       .  A
O209       Al216   1.880       .  S
O210       Al216   1.874       .  S
O211        C218   1.262       .  A
O212       Al216   1.775       .  S
O213        C214   1.268       .  A
C214       C1567   1.469       .  S
C215       C1754   1.484       .  S
C218       C1457   1.494       .  S
C219        O220   1.265       .  A
C219       C1594   1.470       .  S
O221        C236   1.261       .  A
O221       Al229   1.886       .  S
C222        O232   1.263       .  A
C222        O223   1.272       .  A
C222       C1417   1.481       .  S
O223      Al2097   1.950       .  S
O224       C2098   1.259       .  A
O224      Al2097   1.897       .  S
Al225       O233   1.931       .  S
Al225       O235   1.929       .  S
Al225      O2095   1.946   1_554  S
Al225      O2096   1.907   1_554  S
Al225       O234   1.785       .  S
C226        O239   1.262       .  A
C226       O2096   1.260   1_554  A
C226       C1614   1.482   1_565  S
O227        C237   1.266       .  A
O227       Al229   1.940       .  S
O228        C241   1.265       .  A
O228       Al238   1.909       .  S
Al229       O242   1.929       .  S
Al229       O239   1.919       .  S
Al229       O234   1.778       .  S
O230        C237   1.261       .  A
O230       Al238   1.907       .  S
O231        C240   1.255       .  A
O231       Al238   1.888       .  S
O232      Al2110   1.872       .  S
O233        C240   1.260       .  A
O234       Al238   1.772       .  S
O235        C236   1.268       .  A
C236       C1444   1.474       .  S
C237       C1397   1.487       .  S
Al238      O2104   1.869   1_554  S
C240       C1404   1.488       .  S
C241        O242   1.268       .  A
C241       C1424   1.468       .  S
O243       C2130   1.260       .  A
O243      Al2123   1.878       .  S
C244        O254   1.263       .  A
C244        O245   1.270       .  A
C244       C1374   1.474       .  S
O245       Al247   1.936       .  S
O246        C248   1.259       .  A
O246       Al247   1.889       .  S
Al247       O255   1.914       .  S
Al247       O257   1.924       .  S
Al247       O256   1.782       .  S
C248        O261   1.261       .  A
C248       C1367   1.486       .  S
O249        C259   1.264       .  A
O249       Al251   1.922       .  S
O250       C2135   1.263   1_554  A
O250       Al260   1.894       .  S
Al251       O261   1.915       .  S
Al251      O2115   1.882       .  S
Al251      O2136   1.909   1_554  S
Al251       O256   1.777       .  S
O252        C259   1.260       .  A
O252       Al260   1.905       .  S
O253        C262   1.258       .  A
O253       Al260   1.900       .  S
O254       Al260   1.872       .  S
O255        C262   1.258       .  A
O256       Al260   1.780       .  S
O257        C258   1.265       .  A
C258       O2115   1.259       .  A
C258       C3376   1.465   1_554  S
C259       C1354   1.476       .  S
C262       C1407   1.479       .  S
C263        O264   1.267       .  A
C263       O2122   1.261       .  A
C263       C1384   1.457       .  S
O264      Al2123   1.929       .  S
O265        C280   1.266       .  A
O265       Al273   1.917       .  S
C266        O276   1.267       .  A
C266        O267   1.265       .  A
C266       C1387   1.462       .  S
O267       Al269   1.885       .  S
O268        C270   1.258       .  A
O268       Al269   1.902       .  S
Al269       O277   1.883       .  S
Al269       O279   1.898       .  S
Al269       O278   1.787       .  S
C270        O283   1.262       .  A
C270       C1514   1.476       .  S
O271        C281   1.259       .  A
O271       Al273   1.912       .  S
O272        C285   1.261       .  A
O272       Al282   1.904       .  S
Al273       O286   1.882       .  S
Al273       O283   1.925       .  S
Al273       O278   1.786       .  S
O274        C281   1.262       .  A
O274       Al282   1.912       .  S
O275        C284   1.262       .  A
O275       Al282   1.942       .  S
O276       Al282   1.910       .  S
O277        C284   1.254       .  A
O278       Al282   1.791       .  S
O279        C280   1.264       .  A
C280       C1377   1.470       .  S
C281       C1334   1.497       .  S
C284       C1324   1.497       .  S
C285        O286   1.259       .  A
C285       C1344   1.460       .  S
O287        C302   1.257       .  A
O287       Al295   1.854       .  S
C288        O298   1.261       .  A
C288        O289   1.270       .  A
C288       C1427   1.486       .  S
O289       Al291   1.939       .  S
O290        C292   1.254       .  A
O290       Al291   1.892       .  S
Al291       O299   1.882       .  S
Al291       O301   1.953       .  S
Al291       O300   1.784       .  S
C292        O305   1.258       .  A
C292       C1464   1.475       .  S
O293        C303   1.262       .  A
O293       Al295   1.901       .  S
O294        C307   1.263       .  A
O294       Al304   1.910       .  S
Al295       O308   1.912       .  S
Al295       O305   1.923       .  S
Al295       O300   1.790       .  S
O296        C303   1.267       .  A
O296       Al304   1.926       .  S
O297        C306   1.262       .  A
O297       Al304   1.944       .  S
O298       Al304   1.879       .  S
O299        C306   1.255       .  A
O300       Al304   1.791       .  S
O301        C302   1.270       .  A
C302       C1414   1.487       .  S
C303       C1314   1.478       .  S
C306       C1327   1.499       .  S
C307        O308   1.262       .  A
C307       C1307   1.465       .  S
O309        C324   1.257       .  A
O309       Al317   1.863       .  S
C310        O320   1.263       .  A
C310        O311   1.269       .  A
C310       C1264   1.471       .  S
O311       Al313   1.927       .  S
O312        C314   1.254       .  A
O312       Al313   1.891       .  S
Al313       O321   1.889       .  S
Al313       O323   1.937       .  S
Al313       O322   1.782       .  S
C314        O327   1.262       .  A
C314       C1244   1.479       .  S
O315        C325   1.264       .  A
O315       Al317   1.913       .  S
O316        C329   1.266       .  A
O316       Al326   1.918       .  S
Al317       O330   1.918       .  S
Al317       O327   1.936       .  S
Al317       O322   1.785       .  S
O318        C325   1.266       .  A
O318       Al326   1.921       .  S
O319        C328   1.260       .  A
O319       Al326   1.930       .  S
O320       Al326   1.876       .  S
O321        C328   1.256       .  A
O322       Al326   1.785       .  S
O323        C324   1.267       .  A
C324       C1277   1.474       .  S
C325       C1297   1.483       .  S
C328       C1284   1.491       .  S
C329        O330   1.266       .  A
C329       C1257   1.468       .  S
O331        C346   1.265       .  A
O331       Al339   1.906       .  S
C332        O342   1.269       .  A
C332        O333   1.265       .  A
C332       C1224   1.465       .  S
O333       Al335   1.871       .  S
O334        C336   1.262       .  A
O334       Al335   1.914       .  S
Al335       O343   1.899       .  S
Al335       O345   1.897       .  S
Al335       O344   1.779       .  S
C336        O349   1.263       .  A
C336       C1217   1.474       .  S
O337        C347   1.257       .  A
O337       Al339   1.905       .  S
O338        C351   1.264       .  A
O338       Al348   1.916       .  S
Al339       O352   1.876       .  S
Al339       O349   1.922       .  S
Al339       O344   1.779       .  S
O340        C347   1.259       .  A
O340       Al348   1.894       .  S
O341        C350   1.259       .  A
O341       Al348   1.919       .  S
O342       Al348   1.917       .  S
O343        C350   1.256       .  A
O344       Al348   1.781       .  S
O345        C346   1.264       .  A
C346       C1234   1.463       .  S
C347       C1357   1.486       .  S
C350       C1287   1.489       .  S
C351        O352   1.258       .  A
C351       C1347   1.461       .  S
O353        C368   1.255       .  A
O353      Al2233   1.853   1_554  S
C354        O364   1.263       .  A
C354        O355   1.269       .  A
C354       C1197   1.477       .  S
O355       Al357   1.934       .  S
O356        C358   1.254       .  A
O356       Al357   1.881       .  S
Al357       O365   1.885       .  S
Al357       O367   1.939       .  S
Al357       O366   1.783       .  S
C358        O371   1.261       .  A
C358       C1164   1.474       .  S
O359        C369   1.264       .  A
O359       Al361   1.917       .  S
O360        C373   1.263       .  A
O360       Al370   1.908       .  S
Al361       O374   1.919       .  S
Al361       O371   1.927       .  S
Al361      O2225   1.863       .  S
Al361       O366   1.786       .  S
O362        C369   1.264       .  A
O362       Al370   1.907       .  S
O363        C372   1.258       .  A
O363       Al370   1.915       .  S
O364       Al370   1.880       .  S
O365        C372   1.255       .  A
O366       Al370   1.782       .  S
O367       C2240   1.267       .  A
C368       O2239   1.265   1_554  A
C368       C1204   1.478       .  S
C369       C1187   1.484       .  S
C372       C1174   1.479       .  S
C373        O374   1.266       .  A
C373       C3126   1.464       .  S
O375        C390   1.258       .  A
O375       Al383   1.868       .  S
C376        O386   1.263       .  A
C376        O377   1.270       .  A
C376       C1144   1.471       .  S
O377      Al2251   1.926   1_554  S
O378        C380   1.252       .  A
O378       Al379   1.868       .  S
Al379       O387   1.874       .  S
Al379       O389   1.922       .  S
Al379      O2249   1.932       .  S
Al379       O388   1.786       .  S
C380        O393   1.259       .  A
C380       C1137   1.472       .  S
O381        C391   1.261       .  A
O381       Al383   1.914       .  S
O382        C395   1.265       .  A
O382       Al392   1.909       .  S
Al383       O396   1.922       .  S
Al383       O393   1.923       .  S
Al383       O388   1.790       .  S
O384        C391   1.261       .  A
O384       Al392   1.907       .  S
O385        C394   1.254       .  A
O385       Al392   1.915       .  S
O386      Al2264   1.869   1_554  S
O387        C394   1.250       .  A
O388       Al392   1.791       .  S
O389        C390   1.265       .  A
C390       C1154   1.479       .  S
C391       C3266   1.480       .  S
Al392      O2258   1.877       .  S
C394       C1177   1.475       .  S
C395        O396   1.267       .  A
C395       C1304   1.466       .  S
O397        C412   1.260       .  A
O397       Al405   1.882       .  S
C398        O408   1.264       .  A
C398        O399   1.271       .  A
C398       C1157   1.478       .  S
O399       Al401   1.939       .  S
O400        C402   1.258       .  A
O400       Al401   1.886       .  S
Al401       O409   1.923       .  S
Al401       O411   1.917       .  S
Al401       O410   1.782       .  S
C402        O415   1.260       .  A
C402       C1124   1.489       .  S
O403        C413   1.265       .  A
O403       Al405   1.932       .  S
O404        C417   1.264       .  A
O404       Al414   1.895       .  S
Al405       O418   1.924       .  S
Al405       O415   1.921       .  S
Al405       O410   1.782       .  S
O406        C413   1.261       .  A
O406       Al414   1.910       .  S
O407        C416   1.255       .  A
O407       Al414   1.893       .  S
O408       Al414   1.870       .  S
O409        C416   1.257       .  A
O410       Al414   1.772       .  S
O411        C412   1.265       .  A
C412       C1104   1.464       .  S
C413       C1317   1.480       .  S
C416       C1114   1.489       .  S
C417        O418   1.267       .  A
C417       C1147   1.460       .  S
O419        C434   1.262       .  A
O419       Al427   1.887       .  S
C420        O430   1.263       .  A
C420        O421   1.268       .  A
C420       C1207   1.465       .  S
O421       Al423   1.930       .  S
O422        C424   1.262       .  A
O422       Al423   1.915       .  S
Al423       O431   1.930       .  S
Al423       O433   1.921       .  S
Al423       O432   1.790       .  S
C424        O437   1.259       .  A
C424       C1707   1.481       .  S
O425        C435   1.266       .  A
O425       Al427   1.937       .  S
O426        C439   1.265       .  A
O426       Al436   1.912       .  S
Al427       O440   1.915       .  S
Al427       O437   1.902       .  S
Al427       O432   1.777       .  S
O428        C435   1.260       .  A
O428       Al436   1.903       .  S
O429        C438   1.255       .  A
O429       Al436   1.886       .  S
O430       Al436   1.877       .  S
O431        C438   1.261       .  A
O432       Al436   1.773       .  S
O433        C434   1.265       .  A
C434       C1094   1.466       .  S
C435       C1294   1.482       .  S
C438       C1117   1.481       .  S
C439        O440   1.265       .  A
C439       C1194   1.466       .  S
O441        C456   1.264       .  A
O441       Al449   1.888       .  S
C442        O452   1.264       .  A
C442        O443   1.266       .  A
C442       C1724   1.481       .  S
O443       Al445   1.923       .  S
O444        C446   1.257       .  A
O444       Al445   1.903       .  S
Al445       O453   1.905       .  S
Al445       O455   1.928       .  S
Al445       O454   1.789       .  S
C446        O459   1.258       .  A
C446       C1167   1.475       .  S
O447        C457   1.269       .  A
O447       Al449   1.929       .  S
O448        C461   1.261       .  A
O448       Al458   1.916       .  S
Al449       O462   1.918       .  S
Al449       O459   1.912       .  S
Al449       O454   1.784       .  S
O450        C457   1.265       .  A
O450       Al458   1.915       .  S
O451        C460   1.255       .  A
O451       Al458   1.886       .  S
O452       Al458   1.886       .  S
O453        C460   1.256       .  A
O454       Al458   1.776       .  S
O455        C456   1.269       .  A
C456       C1097   1.473       .  S
C457       C1587   1.481       .  S
C460       C1084   1.467       .  S
C461        O462   1.261       .  A
C461       C1717   1.472       .  S
O463        C478   1.258       .  A
O463       Al471   1.875       .  S
C464        O474   1.263       .  A
C464        O465   1.272       .  A
C464       C1697   1.465       .  S
O465       Al467   1.945       .  S
O466        C468   1.259       .  A
O466       Al467   1.894       .  S
Al467       O475   1.918       .  S
Al467       O477   1.927       .  S
Al467       O476   1.779       .  S
C468        O481   1.265       .  A
C468       C1074   1.485       .  S
O469        C479   1.263       .  A
O469       Al471   1.923       .  S
O470        C483   1.263       .  A
O470       Al480   1.894       .  S
Al471       O484   1.928       .  S
Al471       O481   1.927       .  S
Al471       O476   1.773       .  S
O472        C479   1.260       .  A
O472       Al480   1.904       .  S
O473        C482   1.257       .  A
O473       Al480   1.896       .  S
O474       Al480   1.870       .  S
O475        C482   1.259       .  A
O476       Al480   1.775       .  S
O477        C478   1.265       .  A
C478       C1064   1.470       .  S
C479       C1807   1.478       .  S
C482       C1087   1.474       .  S
C483        O484   1.269       .  A
C483       C1684   1.457       .  S
O485       C2372   1.260       .  A
O485      Al2365   1.884       .  S
C486        O496   1.266       .  A
C486        O487   1.271       .  A
C486       C1044   1.476       .  S
O487       Al489   1.934       .  S
O488        C490   1.257       .  A
O488       Al489   1.879       .  S
Al489       O497   1.918       .  S
Al489       O499   1.919       .  S
Al489       O498   1.783       .  S
C490        O503   1.264       .  A
C490       C1664   1.487       .  S
O491        C501   1.263       .  A
O491       Al493   1.932       .  S
O492       C2377   1.263   1_554  A
O492       Al502   1.890       .  S
Al493       O503   1.929       .  S
Al493      O2357   1.876   1_554  S
Al493      O2378   1.934   1_554  S
Al493       O498   1.780       .  S
O494        C501   1.258       .  A
O494       Al502   1.905       .  S
O495        C504   1.255       .  A
O495       Al502   1.890       .  S
O496       Al502   1.871       .  S
O497        C504   1.258       .  A
O498       Al502   1.775       .  S
O499        C500   1.263       .  A
C500       O2357   1.258   1_554  A
C500       C2939   1.469   1_554  S
C501       C1027   1.484       .  S
C504       C1037   1.485       .  S
C505        O506   1.266       .  A
C505       O2364   1.264       .  A
C505       C1054   1.459       .  S
O506      Al2365   1.923       .  S
O507        C522   1.258       .  A
O507       Al515   1.874       .  S
C508        O518   1.263       .  A
C508        O509   1.268       .  A
C508       C1007   1.465       .  S
O509      Al2383   1.930       .  S
O510       C2384   1.261       .  A
O510      Al2383   1.904       .  S
Al511       O519   1.918       .  S
Al511       O521   1.925       .  S
Al511      O2381   1.941   1_554  S
Al511      O2382   1.893   1_554  S
Al511       O520   1.782       .  S
C512        O525   1.264       .  A
C512       O2382   1.261   1_554  A
C512       C3006   1.491   1_554  S
O513        C523   1.263       .  A
O513       Al515   1.926       .  S
O514        C527   1.260       .  A
O514       Al524   1.885       .  S
Al515       O528   1.932       .  S
Al515       O525   1.926       .  S
Al515       O520   1.777       .  S
O516        C523   1.261       .  A
O516       Al524   1.908       .  S
O517        C526   1.255       .  A
O517       Al524   1.891       .  S
O518      Al2396   1.874       .  S
O519        C526   1.259       .  A
O520       Al524   1.773       .  S
O521        C522   1.265       .  A
C522       C1107   1.465       .  S
C523        C994   1.480       .  S
Al524      O2390   1.862   1_554  S
C526       C1034   1.479       .  S
C527        O528   1.268       .  A
C527       C1017   1.456       .  S
O529        C544   1.262       .  A
O529       Al537   1.890       .  S
C530        O540   1.264       .  A
C530        O531   1.273       .  A
C530        C964   1.481       .  S
O531       Al533   1.940       .  S
O532        C534   1.259       .  A
O532       Al533   1.897       .  S
Al533       O541   1.925       .  S
Al533       O543   1.920       .  S
Al533       O542   1.784       .  S
C534        O547   1.259       .  A
C534       C1817   1.494       .  S
O535        C545   1.267       .  A
O535       Al537   1.943       .  S
O536        C549   1.266       .  A
O536       Al546   1.905       .  S
Al537       O550   1.913       .  S
Al537       O547   1.914       .  S
Al537       O542   1.778       .  S
O538        C545   1.259       .  A
O538       Al546   1.905       .  S
O539        C548   1.253       .  A
O539       Al546   1.885       .  S
O540       Al546   1.872       .  S
O541        C548   1.257       .  A
O542       Al546   1.781       .  S
O543        C544   1.266       .  A
C544        C984   1.466       .  S
C545        C947   1.486       .  S
C548        C954   1.483       .  S
C549        O550   1.268       .  A
C549        C977   1.474       .  S
O551        C566   1.260       .  A
O551       Al559   1.878       .  S
C552        O562   1.262       .  A
C552        O553   1.267       .  A
C552        C924   1.457       .  S
O553       Al555   1.925       .  S
O554        C556   1.261       .  A
O554       Al555   1.906       .  S
Al555       O563   1.915       .  S
Al555       O565   1.916       .  S
Al555       O564   1.787       .  S
C556        O569   1.263       .  A
C556       C1247   1.491       .  S
O557        C567   1.266       .  A
O557       Al559   1.934       .  S
O558        C571   1.262       .  A
O558       Al568   1.899       .  S
Al559       O572   1.928       .  S
Al559       O569   1.927       .  S
Al559       O564   1.779       .  S
O560        C567   1.261       .  A
O560       Al568   1.903       .  S
O561        C570   1.256       .  A
O561       Al568   1.896       .  S
O562       Al568   1.870       .  S
O563        C570   1.258       .  A
O564       Al568   1.775       .  S
O565        C566   1.264       .  A
C566        C914   1.466       .  S
C567        C904   1.482       .  S
C570        C957   1.474       .  S
C571        O572   1.266       .  A
C571        C934   1.461       .  S
O573        C588   1.260       .  A
O573       Al581   1.884       .  S
C574        O584   1.266       .  A
C574        O575   1.269       .  A
C574       C1864   1.473       .  S
O575      Al2449   1.920       .  S
O576       C2450   1.261       .  A
O576      Al2449   1.909       .  S
Al577       O585   1.920       .  S
Al577       O587   1.926       .  S
Al577      O2447   1.930   1_554  S
Al577      O2448   1.892       .  S
Al577       O586   1.778       .  S
C578        O591   1.262       .  A
C578       O2448   1.258       .  A
C578       C2766   1.490       .  S
O579        C589   1.262       .  A
O579       Al581   1.915       .  S
O580        C593   1.263       .  A
O580       Al590   1.899       .  S
Al581       O594   1.921       .  S
Al581       O591   1.924       .  S
Al581       O586   1.782       .  S
O582        C589   1.263       .  A
O582       Al590   1.915       .  S
O583        C592   1.258       .  A
O583       Al590   1.903       .  S
O584      Al2462   1.886       .  S
O585        C592   1.259       .  A
O586       Al590   1.781       .  S
O587        C588   1.266       .  A
C588        C987   1.473       .  S
C589       C1637   1.473       .  S
Al590      O2456   1.884   1_554  S
C592        C884   1.484       .  S
C593        O594   1.264       .  A
C593       C1854   1.458       .  S
O595       C2482   1.259       .  A
O595      Al2475   1.878       .  S
C596        O606   1.261       .  A
C596        O597   1.270       .  A
C596       C1784   1.478       .  S
O597       Al599   1.943       .  S
O598        C600   1.259       .  A
O598       Al599   1.890       .  S
Al599       O607   1.915       .  S
Al599       O609   1.931       .  S
Al599       O608   1.784       .  S
C600        O613   1.262       .  A
C600       C1214   1.489       .  S
O601        C611   1.267       .  A
O601       Al603   1.940       .  S
O602       C2487   1.260   1_554  A
O602       Al612   1.893       .  S
Al603       O613   1.924       .  S
Al603      O2467   1.897       .  S
Al603      O2488   1.926   1_554  S
Al603       O608   1.783       .  S
O604        C611   1.262       .  A
O604       Al612   1.912       .  S
O605        C614   1.257       .  A
O605       Al612   1.899       .  S
O606       Al612   1.875       .  S
O607        C614   1.258       .  A
O608       Al612   1.775       .  S
O609        C610   1.267       .  A
C610       O2467   1.263       .  A
C610       C2749   1.476   1_554  S
C611       C1674   1.491       .  S
C614        C887   1.477       .  S
C615        O616   1.272       .  A
C615       O2474   1.265       .  A
C615       C1777   1.466       .  S
O616      Al2475   1.938       .  S
O617        C632   1.260       .  A
O617       Al625   1.882       .  S
C618        O628   1.261       .  A
C618        O619   1.269       .  A
C618       C1274   1.459       .  S
O619       Al621   1.931       .  S
O620        C622   1.262       .  A
O620       Al621   1.902       .  S
Al621       O629   1.925       .  S
Al621       O631   1.910       .  S
Al621       O630   1.786       .  S
C622        O635   1.262       .  A
C622        C864   1.494       .  S
O623        C633   1.266       .  A
O623       Al625   1.939       .  S
O624        C637   1.264       .  A
O624       Al634   1.899       .  S
Al625       O638   1.924       .  S
Al625       O635   1.922       .  S
Al625       O630   1.778       .  S
O626        C633   1.258       .  A
O626       Al634   1.893       .  S
O627        C636   1.254       .  A
O627       Al634   1.882       .  S
O628       Al634   1.861       .  S
O629        C636   1.259       .  A
O630       Al634   1.773       .  S
O631        C632   1.263       .  A
C632        C917   1.460       .  S
C633       C1184   1.486       .  S
C636        C854   1.483       .  S
C637        O638   1.268       .  A
C637       C1267   1.461       .  S
O639        C654   1.260       .  A
O639       Al647   1.887       .  S
C640        O650   1.264       .  A
C640        O641   1.270       .  A
C640       C1237   1.462       .  S
O641       Al643   1.931       .  S
O642        C644   1.262       .  A
O642       Al643   1.904       .  S
Al643       O651   1.925       .  S
Al643       O653   1.914       .  S
Al643       O652   1.791       .  S
C644        O657   1.261       .  A
C644       C1767   1.495       .  S
O645        C655   1.266       .  A
O645       Al647   1.946       .  S
O646        C659   1.263       .  A
O646       Al656   1.892       .  S
Al647       O660   1.918       .  S
Al647       O657   1.914       .  S
Al647       O652   1.777       .  S
O648        C655   1.256       .  A
O648       Al656   1.899       .  S
O649        C658   1.254       .  A
O649       Al656   1.878       .  S
O650       Al656   1.866       .  S
O651        C658   1.258       .  A
O652       Al656   1.781       .  S
O653        C654   1.263       .  A
C654        C874   1.466       .  S
C655       C1337   1.485       .  S
C658        C857   1.486       .  S
C659        O660   1.267       .  A
C659       C1227   1.459       .  S
O661        C676   1.268       .  A
O661       Al669   1.915       .  S
C662        O672   1.272       .  A
C662        O663   1.268       .  A
C662       C1014   1.461       .  S
O663       Al665   1.879       .  S
O664        C666   1.257       .  A
O664       Al665   1.899       .  S
Al665       O673   1.877       .  S
Al665       O675   1.907       .  S
Al665       O674   1.789       .  S
C666        O679   1.261       .  A
C666       C1127   1.480       .  S
O667        C677   1.257       .  A
O667       Al669   1.909       .  S
O668        C681   1.264       .  A
O668       Al678   1.916       .  S
Al669       O682   1.872       .  S
Al669       O679   1.927       .  S
Al669       O674   1.787       .  S
O670        C677   1.257       .  A
O670       Al678   1.894       .  S
O671        C680   1.255       .  A
O671       Al678   1.921       .  S
O672       Al678   1.921       .  S
O673        C680   1.249       .  A
O674       Al678   1.791       .  S
O675        C676   1.268       .  A
C676       C1004   1.477       .  S
C677        C944   1.494   1_565  S
C680        C844   1.487       .  S
C681        O682   1.260       .  A
C681        C834   1.469       .  S
O683        C698   1.258       .  A
O683       Al691   1.860       .  S
C684        O694   1.261       .  A
C684        O685   1.267       .  A
C684       C1057   1.480       .  S
O685       Al687   1.920       .  S
O686        C688   1.253       .  A
O686       Al687   1.886       .  S
Al687       O695   1.885       .  S
Al687       O697   1.930       .  S
Al687       O696   1.781       .  S
C688        O701   1.260       .  A
C688       C1077   1.473       .  S
O689        C699   1.265       .  A
O689       Al691   1.908       .  S
O690        C703   1.264       .  A
O690       Al700   1.917       .  S
Al691       O704   1.910       .  S
Al691       O701   1.930       .  S
Al691       O696   1.788       .  S
O692        C699   1.264       .  A
O692       Al700   1.906       .  S
O693        C702   1.259       .  A
O693       Al700   1.922       .  S
O694       Al700   1.878       .  S
O695        C702   1.255       .  A
O696       Al700   1.784       .  S
O697        C698   1.266       .  A
C698       C1047   1.467       .  S
C699       C1477   1.471       .  S
C702        C847   1.489       .  S
C703        O704   1.264       .  A
C703        C827   1.467       .  S
O705        C720   1.258       .  A
O705       Al713   1.861       .  S
C706        O716   1.261       .  A
C706        O707   1.269       .  A
C706       C1554   1.480       .  S
O707       Al709   1.932       .  S
O708        C710   1.253       .  A
O708       Al709   1.885       .  S
Al709       O717   1.884       .  S
Al709       O719   1.938       .  S
Al709       O718   1.781       .  S
C710        O723   1.261       .  A
C710       C1437   1.475       .  S
O711        C721   1.264       .  A
O711       Al713   1.910       .  S
O712        C725   1.264       .  A
O712       Al722   1.918       .  S
Al713       O726   1.920       .  S
Al713       O723   1.934       .  S
Al713       O718   1.788       .  S
O714        C721   1.267       .  A
O714       Al722   1.920       .  S
O715        C724   1.260       .  A
O715       Al722   1.931       .  S
O716       Al722   1.876       .  S
O717        C724   1.255       .  A
O718       Al722   1.784       .  S
O719        C720   1.268       .  A
C720       C1547   1.477       .  S
C721        C907   1.482       .  S
C724        C814   1.491       .  S
C725        O726   1.265       .  A
C725        C807   1.471       .  S
O727        C742   1.269       .  A
O727       Al735   1.918       .  S
C728        O738   1.273       .  A
C728        O729   1.268       .  A
C728       C1494   1.465       .  S
O729       Al731   1.882       .  S
O730        C732   1.257       .  A
O730       Al731   1.902       .  S
Al731       O739   1.887       .  S
Al731       O741   1.899       .  S
Al731       O740   1.789       .  S
C732        O745   1.259       .  A
C732       C1364   1.477       .  S
O733        C743   1.257       .  A
O733       Al735   1.909       .  S
O734        C747   1.265       .  A
O734       Al744   1.925       .  S
Al735       O748   1.871       .  S
Al735       O745   1.920       .  S
Al735       O740   1.787       .  S
O736        C743   1.257       .  A
O736       Al744   1.888       .  S
O737        C746   1.256       .  A
O737       Al744   1.922       .  S
O738       Al744   1.925       .  S
O739        C746   1.251       .  A
O740       Al744   1.788       .  S
O741        C742   1.267       .  A
C742       C1487   1.473       .  S
C743       C1024   1.490       .  S
C746        C817   1.490       .  S
C747        O748   1.259       .  A
C747        C824   1.476       .  S
O749        C764   1.258       .  A
O749       Al757   1.868       .  S
C750        O760   1.262       .  A
C750        O751   1.268       .  A
C750        C974   1.457       .  S
O751      Al2625   1.930   1_554  S
O752        C754   1.254       .  A
O752       Al753   1.887       .  S
Al753       O761   1.881       .  S
Al753       O763   1.934       .  S
Al753      O2623   1.934       .  S
Al753       O762   1.781       .  S
C754        O767   1.262       .  A
C754        C897   1.477       .  S
O755        C765   1.263       .  A
O755       Al757   1.904       .  S
O756        C769   1.263       .  A
O756       Al766   1.906       .  S
Al757       O770   1.910       .  S
Al757       O767   1.937       .  S
Al757       O762   1.787       .  S
O758        C765   1.265       .  A
O758       Al766   1.916       .  S
O759        C768   1.260       .  A
O759       Al766   1.935       .  S
O760      Al2638   1.866   1_554  S
O761        C768   1.255       .  A
O762       Al766   1.788       .  S
O763        C764   1.267       .  A
C764        C967   1.481       .  S
C765       C2869   1.472       .  S
Al766      O2632   1.868       .  S
C768        C794   1.491       .  S
C769        O770   1.264       .  A
C769        C837   1.460       .  S
O771        C786   1.267       .  A
O771      Al2651   1.912   1_554  S
C772        O782   1.273       .  A
C772        O773   1.267       .  A
C772        C937   1.476       .  S
O773       Al775   1.885       .  S
O774        C776   1.258       .  A
O774       Al775   1.907       .  S
Al775       O783   1.885       .  S
Al775       O785   1.905       .  S
Al775       O784   1.790       .  S
C776        O789   1.263       .  A
C776        C867   1.483       .  S
O777        C787   1.259       .  A
O777       Al779   1.913       .  S
O778        C791   1.266       .  A
O778       Al788   1.928       .  S
Al779       O792   1.884       .  S
Al779       O789   1.934       .  S
Al779      O2643   1.917       .  S
Al779       O784   1.785       .  S
O780        C787   1.257       .  A
O780       Al788   1.896       .  S
O781        C790   1.257       .  A
O781       Al788   1.924       .  S
O782       Al788   1.931       .  S
O783        C790   1.252       .  A
O784       Al788   1.792       .  S
O785       C2658   1.267       .  A
C786       O2657   1.266   1_554  A
C786        C927   1.468       .  S
C787       C1527   1.494       .  S
C790        C797   1.489       .  S
C791        O792   1.261       .  A
C791       C2676   1.475       .  S
C793        C794   1.404       .  A
C793        C798   1.392       .  A
C793        H800   1.083       .  S
C794        C795   1.413       .  A
C795        C796   1.410       .  A
C795        F802   1.357       .  S
C796        C797   1.408       .  A
C796        H801   1.083       .  S
C797        C798   1.409       .  A
C798        F799   1.358       .  S
C803        C804   1.406       .  A
C803        C808   1.408       .  A
C803       H2682   1.083   1_554  S
C804       C2663   1.480   1_554  S
C804        C805   1.408       .  A
C805        C806   1.393       .  A
C805        F812   1.357       .  S
C806        C807   1.399       .  A
C806        H811   1.084       .  S
C807        C808   1.406       .  A
C808        F809   1.357       .  S
H810       C2675   1.083       .  S
C813        C814   1.404       .  A
C813        C818   1.393   1_545  A
C813        H820   1.083       .  S
C814        C815   1.413       .  A
C815        C816   1.409   1_545  A
C815        F822   1.357       .  S
C816        C817   1.407       .  A
C816        H821   1.083       .  S
C817        C818   1.410       .  A
C818        F819   1.358       .  S
C823        C824   1.404       .  A
C823        C828   1.390       .  A
C823        H830   1.083       .  S
C824        C825   1.408       .  A
C825        C826   1.405       .  A
C825        F832   1.357       .  S
C826        C827   1.404       .  A
C826        H831   1.083       .  S
C827        C828   1.402       .  A
C828        F829   1.359       .  S
C833        C834   1.403       .  A
C833        C838   1.390       .  A
C833        H840   1.083       .  S
C834        C835   1.407   1_565  A
C835        C836   1.402       .  A
C835        F842   1.357       .  S
C836        C837   1.402       .  A
C836        H841   1.083       .  S
C837        C838   1.402   1_545  A
C838        F839   1.359       .  S
C843        C844   1.406       .  A
C843        C848   1.392       .  A
C843        H850   1.083       .  S
C844        C845   1.408       .  A
C845        C846   1.407       .  A
C845        F852   1.357       .  S
C846        C847   1.411       .  A
C846        H851   1.083       .  S
C847        C848   1.408       .  A
C848        F849   1.358       .  S
C853        C854   1.409       .  A
C853        C858   1.411   1_655  A
C853        H860   1.083       .  S
C854        C855   1.407       .  A
C855        C856   1.384   1_655  A
C855        F862   1.359       .  S
C856        C857   1.404       .  A
C856        H861   1.083       .  S
C857        C858   1.411       .  A
C858        F859   1.357       .  S
C863        C864   1.406       .  A
C863        C868   1.398       .  A
C863        H870   1.083       .  S
C864        C865   1.415       .  A
C865        C866   1.408       .  A
C865        F872   1.357       .  S
C866        C867   1.402       .  A
C866        H871   1.083       .  S
C867        C868   1.407       .  A
C868        F869   1.358       .  S
C873        C874   1.403       .  A
C873        C878   1.397       .  A
C873        H880   1.081       .  S
C874        C875   1.403       .  A
C875        C876   1.397       .  A
C875        F882   1.358       .  S
C876        C877   1.405       .  A
C876        H881   1.084       .  S
C877       C2482   1.469       .  S
C877        C878   1.404       .  A
C878       F2751   1.358       .  S
F879       C2750   1.358   1_554  S
C883        C884   1.404       .  A
C883        C888   1.392       .  A
C883        H890   1.084       .  S
C884        C885   1.410       .  A
C885        C886   1.409       .  A
C885        F892   1.357       .  S
C886        C887   1.406       .  A
C886        H891   1.083       .  S
C887        C888   1.404       .  A
C888        F889   1.358       .  S
C893        C898   1.406       .  A
C893       C2766   1.411   1_655  A
C893        H900   1.083       .  S
C894       C2450   1.491   1_655  S
C894        C895   1.410       .  A
C894       C2765   1.409       .  A
C895        C896   1.405       .  A
C895        F902   1.357   1_655  S
C896        C897   1.404       .  A
C896        H901   1.083       .  S
C897       C2770   1.403       .  A
C898       C2769   1.403   1_554  A
C898        F899   1.357       .  S
C903        C904   1.405       .  A
C903        C908   1.410       .  A
C903        H910   1.083       .  S
C904        C905   1.408       .  A
C905        C906   1.391       .  A
C905        F912   1.357       .  S
C906        C907   1.400       .  A
C906        H911   1.084       .  S
C907        C908   1.411       .  A
C908        F909   1.357       .  S
C913        C914   1.404       .  A
C913        C918   1.394       .  A
C913        H920   1.084       .  S
C914        C915   1.405       .  A
C915        C916   1.395       .  A
C915        F922   1.358       .  S
C916        C917   1.401       .  A
C916        H921   1.084       .  S
C917        C918   1.403       .  A
C918        F919   1.358       .  S
C923        C924   1.402       .  A
C923        C928   1.399       .  A
C923        H930   1.083       .  S
C924        C925   1.400       .  A
C925        C926   1.386       .  A
C925        F932   1.359       .  S
C926        C927   1.404       .  A
C926        H931   1.084       .  S
C927        C928   1.407       .  A
C928        F929   1.357       .  S
C933        C934   1.399       .  A
C933        C938   1.396       .  A
C933        H940   1.084       .  S
C934        C935   1.402       .  A
C935        C936   1.398       .  A
C935        F942   1.356       .  S
C936        C937   1.406       .  A
C936        H941   1.083       .  S
C937        C938   1.408       .  A
C938        F939   1.357       .  S
C943        C944   1.413       .  A
C943        C948   1.409       .  A
C943        H950   1.083       .  S
C944        C945   1.409       .  A
C945        C946   1.396       .  A
C945        F952   1.357   1_545  S
C946        C947   1.406       .  A
C946        H951   1.084       .  S
C947        C948   1.405       .  A
C948        F949   1.357       .  S
C953        C954   1.409       .  A
C953        C958   1.410       .  A
C953        H960   1.083       .  S
C954        C955   1.408       .  A
C955        C956   1.390       .  A
C955        F962   1.358       .  S
C956        C957   1.399       .  A
C956        H961   1.084       .  S
C957        C958   1.407       .  A
C958        F959   1.357       .  S
C963        C964   1.407       .  A
C963        C968   1.403       .  A
C963        H970   1.083       .  S
C964        C965   1.409       .  A
C965        C966   1.391       .  A
C965        F972   1.359       .  S
C966        C967   1.405       .  A
C966        H971   1.084       .  S
C967        C968   1.408       .  A
C968        F969   1.357       .  S
C973        C974   1.401       .  A
C973        C978   1.402       .  A
C973        H980   1.083       .  S
C974        C975   1.399       .  A
C975        C976   1.386       .  A
C975        F982   1.359       .  S
C976        C977   1.405       .  A
C976        H981   1.083       .  S
C977        C978   1.410       .  A
C978        F979   1.357       .  S
C983        C984   1.402       .  A
C983        C988   1.398       .  A
C983        H990   1.084       .  S
C984        C985   1.403   1_655  A
C985        C986   1.397       .  A
C985        F992   1.358       .  S
C986        C987   1.405       .  A
C986        H991   1.084       .  S
C987        C988   1.407   1_455  A
C988        F989   1.358       .  S
C993        C998   1.404       .  A
C993       C2866   1.403       .  A
C993       H1000   1.083       .  S
C994        C995   1.408       .  A
C994       C2865   1.406       .  A
C995        C996   1.391       .  A
C995       F1002   1.358       .  S
C996        C997   1.401   1_565  A
C996       H1001   1.084   1_565  S
C997       C2637   1.478   1_554  S
C997       C2870   1.409   1_544  A
C998       C2869   1.409   1_565  A
C998        F999   1.357       .  S
C1003      C1004   1.407       .  A
C1003      C1008   1.403       .  A
C1003      H1010   1.083       .  S
C1004      C1005   1.410       .  A
C1005      C1006   1.387       .  A
C1005      F1012   1.358       .  S
C1006      C1007   1.398       .  A
C1006      H1011   1.084       .  S
C1007      C1008   1.405       .  A
C1008      F1009   1.357       .  S
C1013      C1014   1.402       .  A
C1013      C1018   1.395       .  A
C1013      H1020   1.083       .  S
C1014      C1015   1.404       .  A
C1015      C1016   1.393       .  A
C1015      F1022   1.357       .  S
C1016      C1017   1.399       .  A
C1016      H1021   1.084       .  S
C1017      C1018   1.403       .  A
C1018      F1019   1.358       .  S
C1023      C1024   1.404       .  A
C1023      C1028   1.393       .  A
C1023      H1030   1.083       .  S
C1024      C1025   1.414       .  A
C1025      C1026   1.409       .  A
C1025      F1032   1.357       .  S
C1026      C1027   1.404       .  A
C1026      H1031   1.083       .  S
C1027      C1028   1.408       .  A
C1028      F1029   1.357       .  S
C1033      C1034   1.406       .  A
C1033      C1038   1.408       .  A
C1033      H1040   1.083       .  S
C1034      C1035   1.406       .  A
C1035      C1036   1.388       .  A
C1035      F1042   1.359       .  S
C1036      C1037   1.405       .  A
C1036      H1041   1.083       .  S
C1037      C1038   1.410       .  A
C1038      F1039   1.357       .  S
C1043      C1044   1.403       .  A
C1043      C1048   1.386       .  A
C1043      H1050   1.083       .  S
C1044      C1045   1.412       .  A
C1045      C1046   1.402       .  A
C1045      F1052   1.357       .  S
C1046      C1047   1.402       .  A
C1046      H1051   1.083       .  S
C1047      C1048   1.404       .  A
C1048      F1049   1.357       .  S
C1053      C1054   1.399       .  A
C1053      C1058   1.398       .  A
C1053      H1060   1.083       .  S
C1054      C1055   1.399       .  A
C1055      C1056   1.394       .  A
C1055      F1062   1.357       .  S
C1056      C1057   1.408       .  A
C1056      H1061   1.083       .  S
C1057      C1058   1.411       .  A
C1058      F1059   1.357       .  S
C1063      C1064   1.403       .  A
C1063      C1068   1.398       .  A
C1063      H1070   1.084       .  S
C1064      C1065   1.407       .  A
C1065      C1066   1.392       .  A
C1065      F1072   1.354       .  S
C1066      C1067   1.398       .  A
C1066      H2943   1.084       .  S
C1067      C2372   1.463       .  S
C1067      C1068   1.405       .  A
C1068      F1069   1.357       .  S
H1071      C2938   1.083   1_554  S
C1073      C1074   1.407       .  A
C1073      C1078   1.401       .  A
C1073      H1080   1.083       .  S
C1074      C1075   1.410       .  A
C1075      C1076   1.402       .  A
C1075      F1082   1.358       .  S
C1076      C1077   1.402       .  A
C1076      H1081   1.084       .  S
C1077      C1078   1.403       .  A
C1078      F1079   1.357       .  S
C1083      C1084   1.405       .  A
C1083      C1088   1.407       .  A
C1083      H1090   1.083       .  S
C1084      C1085   1.401       .  A
C1085      C1086   1.388       .  A
C1085      F1092   1.358       .  S
C1086      C1087   1.403       .  A
C1086      H1091   1.084       .  S
C1087      C1088   1.408       .  A
C1088      F1089   1.357       .  S
C1093      C1094   1.402       .  A
C1093      C1098   1.396       .  A
C1093      H1100   1.084       .  S
C1094      C1095   1.404       .  A
C1095      C1096   1.396       .  A
C1095      F1102   1.358       .  S
C1096      C1097   1.405       .  A
C1096      H1101   1.084       .  S
C1097      C1098   1.407       .  A
C1098      F1099   1.357       .  S
C1103      C1104   1.400       .  A
C1103      C1108   1.394       .  A
C1103      H1110   1.084       .  S
C1104      C1105   1.406       .  A
C1105      C1106   1.397       .  A
C1105      F1112   1.358       .  S
C1106      C1107   1.402       .  A
C1106      H1111   1.084       .  S
C1107      C1108   1.405       .  A
C1108      F1109   1.357       .  S
C1113      C1114   1.411       .  A
C1113      C1118   1.412       .  A
C1113      H1120   1.083       .  S
C1114      C1115   1.409       .  A
C1115      C1116   1.389       .  A
C1115      F1122   1.358       .  S
C1116      C1117   1.401       .  A
C1116      H1121   1.084       .  S
C1117      C1118   1.408       .  A
C1118      F1119   1.357       .  S
C1123      C1124   1.405       .  A
C1123      C1128   1.392       .  A
C1123      H1130   1.083       .  S
C1124      C1125   1.414       .  A
C1125      C1126   1.408       .  A
C1125      F1132   1.357       .  S
C1126      C1127   1.404       .  A
C1126      H1131   1.083       .  S
C1127      C1128   1.407       .  A
C1128      F1129   1.359       .  S
C1133      C1134   1.404       .  A
C1133      C1138   1.395       .  A
C1133      H1140   1.083       .  S
C1134      C2384   1.486       .  S
C1134      C3007   1.415       .  A
C1135      C3006   1.414   1_554  A
C1135      C3008   1.407   1_554  A
C1135      F1142   1.357       .  S
C1136      C1137   1.400       .  A
C1136      C3007   1.405       .  A
C1136      H1141   1.083       .  S
C1137      C1138   1.405       .  A
C1138      F1139   1.358       .  S
C1143      C1144   1.406       .  A
C1143      C1148   1.390       .  A
C1143      H1150   1.084       .  S
C1144      C1145   1.407       .  A
C1145      C1146   1.399       .  A
C1145      F1152   1.357       .  S
C1146      C1147   1.402       .  A
C1146      H1151   1.084       .  S
C1147      C1148   1.400       .  A
C1148      F1149   1.357       .  S
C1153      C1154   1.407       .  A
C1153      C1158   1.404       .  A
C1153      H1160   1.083       .  S
C1154      C1155   1.408       .  A
C1155      C1156   1.387       .  A
C1155      F1162   1.358       .  S
C1156      C1157   1.403       .  A
C1156      H1161   1.084       .  S
C1157      C1158   1.409       .  A
C1158      F1159   1.357       .  S
C1163      C1164   1.405       .  A
C1163      C1168   1.403       .  A
C1163      H1170   1.083       .  S
C1164      C1165   1.405       .  A
C1165      C1166   1.397       .  A
C1165      F1172   1.358       .  S
C1166      C1167   1.405       .  A
C1166      H1171   1.084       .  S
C1167      C1168   1.404       .  A
C1168      F1169   1.357       .  S
C1173      C1174   1.408       .  A
C1173      C1178   1.403       .  A
C1173      H1180   1.083       .  S
C1174      C1175   1.407       .  A
C1175      C1176   1.392       .  A
C1175      F1182   1.358       .  S
C1176      C1177   1.403       .  A
C1176      H1181   1.084       .  S
C1177      C1178   1.406       .  A
C1178      F1179   1.357       .  S
C1183      C1184   1.407       .  A
C1183      C1188   1.411       .  A
C1183      H1190   1.083       .  S
C1184      C1185   1.411       .  A
C1185      C1186   1.388       .  A
C1185      F1192   1.359       .  S
C1186      C1187   1.401       .  A
C1186      H1191   1.084       .  S
C1187      C1188   1.411       .  A
C1188      F1189   1.357       .  S
C1193      C1194   1.402       .  A
C1193      C1198   1.403       .  A
C1193      H1200   1.083       .  S
C1194      C1195   1.403       .  A
C1195      C1196   1.392       .  A
C1195      F1202   1.358       .  S
C1196      C1197   1.404       .  A
C1196      H1201   1.084       .  S
C1197      C1198   1.409       .  A
C1198      F1199   1.357       .  S
C1203      C1204   1.407       .  A
C1203      C1208   1.387       .  A
C1203      H1210   1.083       .  S
C1204      C1205   1.409       .  A
C1205      C1206   1.403       .  A
C1205      F1212   1.357       .  S
C1206      C1207   1.404       .  A
C1206      H1211   1.083       .  S
C1207      C1208   1.401       .  A
C1208      F1209   1.359       .  S
C1213      C1214   1.412       .  A
C1213      C1218   1.407       .  A
C1213      H1220   1.083       .  S
C1214      C1215   1.409       .  A
C1215      C1216   1.393       .  A
C1215      F1222   1.358       .  S
C1216      C1217   1.401       .  A
C1216      H1221   1.084       .  S
C1217      C1218   1.404       .  A
C1218      F1219   1.357       .  S
C1223      C1224   1.407       .  A
C1223      C3100   1.395   1_554  A
C1223      H1230   1.083       .  S
C1224      C1225   1.406       .  A
C1225      C3098   1.388   1_554  A
C1225      F1232   1.358       .  S
C1226      C1227   1.395       .  A
C1226      C3097   1.388       .  A
C1226      H1231   1.081       .  S
C1227      C1228   1.401       .  A
C1228      C3095   1.402       .  A
C1228      F1229   1.357       .  S
C1233      C1234   1.403       .  A
C1233      C1238   1.400       .  A
C1233      H1240   1.083       .  S
C1234      C1235   1.406       .  A
C1235      C1236   1.384       .  A
C1235      F1242   1.358       .  S
C1236      C1237   1.398       .  A
C1236      H1241   1.084       .  S
C1237      C1238   1.407       .  A
C1238      F1239   1.357       .  S
C1243      C1244   1.404       .  A
C1243      C1248   1.404       .  A
C1243      H1250   1.084       .  S
C1244      C1245   1.404       .  A
C1245      C1246   1.404       .  A
C1245      F1252   1.358       .  S
C1246      C1247   1.409       .  A
C1246      H1251   1.083       .  S
C1247      C1248   1.409       .  A
C1248      F1249   1.357       .  S
C1253      C1254   1.404       .  A
C1253      C1258   1.405       .  A
C1253      H3132   1.083   1_554  S
C1254      C2245   1.469   1_554  S
C1254      C1255   1.402       .  A
C1255      C1256   1.394       .  A
C1255      F1262   1.357       .  S
C1256      C1257   1.401       .  A
C1256      H1261   1.084       .  S
C1257      C1258   1.406       .  A
C1258      F1259   1.357       .  S
H1260      C3125   1.084       .  S
C1263      C1264   1.404       .  A
C1263      C1268   1.391       .  A
C1263      H1270   1.084       .  S
C1264      C1265   1.408       .  A
C1265      C1266   1.399       .  A
C1265      F1272   1.357       .  S
C1266      C1267   1.401       .  A
C1266      H1271   1.083       .  S
C1267      C1268   1.402       .  A
C1268      F1269   1.358       .  S
C1273      C1274   1.402       .  A
C1273      C3150   1.399       .  A
C1273      H1280   1.083       .  S
C1274      C1275   1.403       .  A
C1275      C3148   1.385       .  A
C1275      F1282   1.359       .  S
C1276      C1277   1.402       .  A
C1276      C3147   1.390   1_554  A
C1276      H1281   1.081       .  S
C1277      C1278   1.404       .  A
C1278      C3145   1.404   1_554  A
C1278      F1279   1.357       .  S
C1283      C1284   1.405       .  A
C1283      C1288   1.395   1_655  A
C1283      H1290   1.083       .  S
C1284      C1285   1.412       .  A
C1285      C1286   1.407   1_655  A
C1285      F1292   1.357       .  S
C1286      C1287   1.407       .  A
C1286      H1291   1.083       .  S
C1287      C1288   1.410       .  A
C1288      F1289   1.358       .  S
C1293      C1294   1.406       .  A
C1293      C1298   1.394       .  A
C1293      H1300   1.084       .  S
C1294      C1295   1.406       .  A
C1295      C1296   1.409       .  A
C1295      F1302   1.357       .  S
C1296      C1297   1.409       .  A
C1296      H1301   1.083       .  S
C1297      C1298   1.405       .  A
C1298      F1299   1.358       .  S
C1303      C1304   1.404       .  A
C1303      C1308   1.402       .  A
C1303      H1310   1.079       .  S
C1304      C1305   1.402   1_655  A
C1305      C1306   1.398       .  A
C1305      F1312   1.358       .  S
C1306      C1307   1.402       .  A
C1306      H1311   1.079       .  S
C1307      C1308   1.404   1_455  A
C1308      F1309   1.358       .  S
C1313      C1314   1.399   1_655  A
C1313      C1318   1.393       .  A
C1313      H1320   1.083   1_655  S
C1314      C1315   1.411   1_455  A
C1315      C1316   1.408       .  A
C1315      F1322   1.357       .  S
C1316      C1317   1.405       .  A
C1316      H1321   1.083       .  S
C1317      C1318   1.408       .  A
C1318      F1319   1.357       .  S
C1323      C1324   1.406       .  A
C1323      C1328   1.391       .  A
C1323      H1330   1.083       .  S
C1324      C1325   1.411       .  A
C1325      C1326   1.416       .  A
C1325      F1332   1.357       .  S
C1326      C1327   1.414       .  A
C1326      H1331   1.083       .  S
C1327      C1328   1.409       .  A
C1328      F1329   1.358       .  S
C1333      C1334   1.404       .  A
C1333      C1338   1.399       .  A
C1333      H1340   1.083       .  S
C1334      C1335   1.417       .  A
C1335      C1336   1.409       .  A
C1335      F1342   1.357       .  S
C1336      C1337   1.402       .  A
C1336      H1341   1.083       .  S
C1337      C1338   1.409       .  A
C1338      F1339   1.358       .  S
C1343      C1344   1.401       .  A
C1343      C1348   1.395       .  A
C1343      H1350   1.083       .  S
C1344      C1345   1.403       .  A
C1345      C1346   1.394       .  A
C1345      F1352   1.358       .  S
C1346      C1347   1.403       .  A
C1346      H1351   1.084       .  S
C1347      C1348   1.404       .  A
C1348      F1349   1.358       .  S
C1353      C1354   1.402       .  A
C1353      C1358   1.404       .  A
C1353      H1360   1.083       .  S
C1354      C1355   1.407       .  A
C1355      C1356   1.393       .  A
C1355      F1362   1.358       .  S
C1356      C1357   1.404       .  A
C1356      H1361   1.083       .  S
C1357      C1358   1.414       .  A
C1358      F1359   1.357       .  S
C1363      C1364   1.403       .  A
C1363      C1368   1.392       .  A
C1363      H1370   1.084       .  S
C1364      C1365   1.404       .  A
C1365      C1366   1.405       .  A
C1365      F1372   1.357       .  S
C1366      C1367   1.412       .  A
C1366      H1371   1.083       .  S
C1367      C1368   1.408       .  A
C1368      F1369   1.358       .  S
C1373      C1374   1.403       .  A
C1373      C1378   1.389       .  A
C1373      H1380   1.084       .  S
C1374      C1375   1.408       .  A
C1375      C1376   1.403       .  A
C1375      F1382   1.357       .  S
C1376      C1377   1.404       .  A
C1376      H1381   1.083       .  S
C1377      C1378   1.404       .  A
C1378      F1379   1.357       .  S
C1383      C1384   1.401       .  A
C1383      C1388   1.396       .  A
C1383      H1390   1.084       .  S
C1384      C1385   1.401       .  A
C1385      C1386   1.393       .  A
C1385      F1392   1.357       .  S
C1386      C1387   1.403       .  A
C1386      H1391   1.084       .  S
C1387      C1388   1.404       .  A
C1388      F1389   1.357       .  S
C1393      C1394   1.410   1_456  A
C1393      C1398   1.413   1_556  A
C1393      H1400   1.083   1_455  S
C1394      C2263   1.487   1_554  S
C1394      C3267   1.407   1_655  A
C1395      C1396   1.392       .  A
C1395      C3266   1.405   1_455  A
C1395      F1402   1.358   1_455  S
C1396      C3269   1.404       .  A
C1396      H1401   1.084       .  S
C1397      C1398   1.409       .  A
C1397      C3268   1.404       .  A
C1398      F1399   1.357   1_554  S
C1403      C1404   1.407       .  A
C1403      C1408   1.389       .  A
C1403      H1410   1.083       .  S
C1404      C1405   1.411       .  A
C1405      C1406   1.410       .  A
C1405      F1412   1.357       .  S
C1406      C1407   1.407       .  A
C1406      H1411   1.083       .  S
C1407      C1408   1.403       .  A
C1408      F1409   1.358       .  S
C1413      C1414   1.407       .  A
C1413      C1418   1.386       .  A
C1413      H1420   1.084       .  S
C1414      C1415   1.410       .  A
C1415      C1416   1.409       .  A
C1415      F1422   1.357       .  S
C1416      C1417   1.409       .  A
C1416      H1421   1.084       .  S
C1417      C1418   1.405       .  A
C1418      F1419   1.359       .  S
C1423      C1424   1.398       .  A
C1423      C1428   1.395       .  A
C1423      H1430   1.084       .  S
C1424      C1425   1.404       .  A
C1425      C1426   1.403       .  A
C1425      F1432   1.357       .  S
C1426      C1427   1.408       .  A
C1426      H1431   1.083       .  S
C1427      C1428   1.412       .  A
C1428      F1429   1.357       .  S
C1433      C1434   1.408       .  A
C1433      C1438   1.400       .  A
C1433      H1440   1.083       .  S
C1434      C1435   1.408       .  A
C1435      C1436   1.404       .  A
C1435      F1442   1.357       .  S
C1436      C1437   1.404       .  A
C1436      H1441   1.084       .  S
C1437      C1438   1.402       .  A
C1438      F1439   1.358       .  S
C1443      C1444   1.404   1_545  A
C1443      C1448   1.399       .  A
C1443      H1450   1.084       .  S
C1444      C1445   1.407       .  A
C1445      C1446   1.398       .  A
C1445      F1452   1.358       .  S
C1446      C1447   1.403   1_565  A
C1446      H1451   1.084       .  S
C1447      C1448   1.405       .  A
C1448      F1449   1.358       .  S
C1453      C1454   1.401       .  A
C1453      C1458   1.390       .  A
C1453      H1460   1.084       .  S
C1454      C1455   1.410       .  A
C1455      C1456   1.414       .  A
C1455      F1462   1.357       .  S
C1456      C1457   1.410       .  A
C1456      H1461   1.083       .  S
C1457      C1458   1.412       .  A
C1458      F1459   1.358       .  S
C1463      C1464   1.405       .  A
C1463      C1468   1.404       .  A
C1463      H1470   1.084       .  S
C1464      C1465   1.402       .  A
C1465      C1466   1.400       .  A
C1465      F1472   1.357       .  S
C1466      C1467   1.408   1_565  A
C1466      H1471   1.083       .  S
C1467      C1468   1.408   1_545  A
C1468      F1469   1.357   1_565  S
C1473      C1474   1.402       .  A
C1473      C1478   1.391       .  A
C1473      H1480   1.084       .  S
C1474      C1475   1.406       .  A
C1475      C1476   1.405       .  A
C1475      F1482   1.357       .  S
C1476      C1477   1.406       .  A
C1476      H1481   1.083       .  S
C1477      C1478   1.404       .  A
C1478      F1479   1.358       .  S
C1483      C1484   1.404       .  A
C1483      C1488   1.402       .  A
C1483      H1490   1.083       .  S
C1484      C1485   1.403       .  A
C1485      C1486   1.389       .  A
C1485      F1492   1.359       .  S
C1486      C1487   1.403       .  A
C1486      H1491   1.083       .  S
C1487      C1488   1.407       .  A
C1488      F1489   1.357       .  S
C1493      C1498   1.397       .  A
C1493      C3366   1.405       .  A
C1493      H3372   1.084       .  S
C1494      C1495   1.405       .  A
C1494      C3365   1.403       .  A
C1495      C3368   1.397   1_554  A
C1495      F1502   1.358       .  S
C1496      C1497   1.401       .  A
C1496      C3367   1.397       .  A
C1496      H1501   1.084       .  S
C1497      C1498   1.401       .  A
C1498      F1499   1.358       .  S
H1500      C3365   1.084       .  S
C1503      C1504   1.404       .  A
C1503      C1508   1.398       .  A
C1503      H1510   1.084       .  S
C1504      C2130   1.465       .  S
C1504      C1505   1.402       .  A
C1505      C1506   1.395       .  A
C1505      F3384   1.358       .  S
C1506      C1507   1.405       .  A
C1506      H1511   1.084       .  S
C1507      C1508   1.405       .  A
C1508      F1509   1.358       .  S
F1512      C3377   1.358   1_554  S
C1513      C1514   1.402       .  A
C1513      C1518   1.406       .  A
C1513      H1520   1.083       .  S
C1514      C1515   1.405       .  A
C1515      C1516   1.395       .  A
C1515      F1522   1.358       .  S
C1516      C1517   1.405       .  A
C1516      H1521   1.083       .  S
C1517      C1518   1.415       .  A
C1518      F1519   1.357       .  S
C1523      C1524   1.405       .  A
C1523      C1528   1.399       .  A
C1523      H1530   1.084       .  S
C1524      C1525   1.405       .  A
C1525      C1526   1.407       .  A
C1525      F1532   1.357       .  S
C1526      C1527   1.412       .  A
C1526      H1531   1.083       .  S
C1527      C1528   1.410       .  A
C1528      F1529   1.358       .  S
C1533      C1534   1.405       .  A
C1533      C1538   1.389   1_545  A
C1533      H1540   1.083       .  S
C1534      C1535   1.412       .  A
C1535      C1536   1.413   1_545  A
C1535      F1542   1.357       .  S
C1536      C1537   1.408       .  A
C1536      H1541   1.083       .  S
C1537      C1538   1.404       .  A
C1538      F1539   1.358       .  S
C1543      C1544   1.401       .  A
C1543      C3420   1.385       .  A
C1543      H1550   1.084       .  S
C1544      C3417   1.409       .  A
C1545      C1546   1.404       .  A
C1545      C3416   1.411   1_554  A
C1545      F3424   1.357   1_554  S
C1546      C1547   1.405       .  A
C1546      H1551   1.083       .  S
C1547      C1548   1.407       .  A
C1548      C3415   1.387   1_554  A
C1548      F1549   1.357       .  S
F1552      C3417   1.357       .  S
C1553      C1554   1.408       .  A
C1553      C1558   1.401       .  A
C1553      H1560   1.083       .  S
C1554      C1555   1.411       .  A
C1555      C1556   1.393       .  A
C1555      F1562   1.358       .  S
C1556      C1557   1.398       .  A
C1556      H1561   1.084       .  S
C1557      C1558   1.403       .  A
C1558      F1559   1.358       .  S
C1563      C1564   1.404       .  A
C1563      C1568   1.397       .  A
C1563      H1570   1.084       .  S
C1564      C1565   1.405       .  A
C1565      C1566   1.399       .  A
C1565      F1572   1.358       .  S
C1566      C1567   1.404       .  A
C1566      H1571   1.084       .  S
C1567      C1568   1.404       .  A
C1568      F1569   1.358       .  S
C1573      C1574   1.403       .  A
C1573      C1578   1.409       .  A
C1573      H1580   1.083       .  S
C1574      C1575   1.404       .  A
C1575      C1576   1.399       .  A
C1575      F1582   1.358       .  S
C1576      C1577   1.408       .  A
C1576      H1581   1.083       .  S
C1577      C1578   1.415       .  A
C1578      F1579   1.357       .  S
C1583      C1584   1.401       .  A
C1583      C1588   1.394       .  A
C1583      H1590   1.084       .  S
C1584      C1585   1.411       .  A
C1585      C1586   1.409       .  A
C1585      F1592   1.357       .  S
C1586      C1587   1.405       .  A
C1586      H1591   1.083       .  S
C1587      C1588   1.407       .  A
C1588      F1589   1.357       .  S
C1593      C1594   1.402       .  A
C1593      C1598   1.391       .  A
C1593      H1600   1.084       .  S
C1594      C1595   1.405       .  A
C1595      C1596   1.404       .  A
C1595      F1602   1.357       .  S
C1596      C1597   1.406       .  A
C1596      H1601   1.083       .  S
C1597      C1598   1.405       .  A
C1598      F1599   1.358       .  S
C1603      C1604   1.404       .  A
C1603      C1608   1.387       .  A
C1603      H1610   1.084       .  S
C1604      C1605   1.407       .  A
C1605      C1606   1.407       .  A
C1605      F1612   1.357       .  S
C1606      C1607   1.410       .  A
C1606      H1611   1.083       .  S
C1607      C1608   1.407       .  A
C1608      F1609   1.358       .  S
C1613      C1618   1.401       .  A
C1613      C3486   1.407       .  A
C1613      H1620   1.083   1_545  S
C1614      C1615   1.408       .  A
C1614      C3485   1.405   1_554  A
C1615      C1616   1.399       .  A
C1615      F1622   1.358       .  S
C1616      C3489   1.403   1_554  A
C1616      H1621   1.084       .  S
C1617      C1618   1.404       .  A
C1617      C3488   1.401       .  A
C1618      F1619   1.358       .  S
C1623      C1624   1.406       .  A
C1623      C1628   1.394       .  A
C1623      H1630   1.083       .  S
C1624      C1625   1.411       .  A
C1625      C1626   1.406       .  A
C1625      F1632   1.357       .  S
C1626      C1627   1.405       .  A
C1626      H1631   1.083       .  S
C1627      C1628   1.406       .  A
C1628      F1629   1.358       .  S
C1633      C1634   1.401       .  A
C1633      C1638   1.391       .  A
C1633      H1640   1.084       .  S
C1634      C1977   1.473   1_554  S
C1634      C3507   1.409   1_554  A
C1635      C3506   1.410       .  A
C1635      C3508   1.408       .  A
C1635      F1642   1.357       .  S
C1636      C1637   1.404       .  A
C1636      C3507   1.406   1_554  A
C1636      H3513   1.083   1_554  S
C1637      C1638   1.405       .  A
C1638      F1639   1.358       .  S
H1641      C3508   1.083       .  S
C1643      C1644   1.405       .  A
C1643      C1648   1.400       .  A
C1643      H1650   1.083       .  S
C1644      C1645   1.408       .  A
C1645      C1646   1.393       .  A
C1645      F1652   1.358       .  S
C1646      C1647   1.400       .  A
C1646      H1651   1.084       .  S
C1647      C1648   1.405       .  A
C1648      F1649   1.358       .  S
C1653      C1654   1.409       .  A
C1653      C1658   1.405       .  A
C1653      H1660   1.083       .  S
C1654      C1655   1.408       .  A
C1655      C1656   1.390       .  A
C1655      F1662   1.358       .  S
C1656      C1657   1.401       .  A
C1656      H1661   1.084       .  S
C1657      C1658   1.404       .  A
C1658      F1659   1.357       .  S
C1663      C1664   1.409       .  A
C1663      C1668   1.406       .  A
C1663      H1670   1.083       .  S
C1664      C1665   1.410       .  A
C1665      C1666   1.395       .  A
C1665      F1672   1.358       .  S
C1666      C1667   1.401       .  A
C1666      H1671   1.084       .  S
C1667      C1668   1.404       .  A
C1668      F1669   1.357       .  S
C1673      C1674   1.406       .  A
C1673      C1678   1.412       .  A
C1673      H1680   1.083       .  S
C1674      C1675   1.409       .  A
C1675      C1676   1.396       .  A
C1675      F1682   1.358       .  S
C1676      C1677   1.405       .  A
C1676      H1681   1.083       .  S
C1677      C1678   1.415       .  A
C1678      F1679   1.357       .  S
C1683      C1684   1.397       .  A
C1683      C3560   1.394       .  A
C1683      H1690   1.081       .  S
C1684      C1685   1.400       .  A
C1685      C3558   1.396       .  A
C1685      F1692   1.356       .  S
C1686      C1687   1.408       .  A
C1686      C3557   1.402   1_554  A
C1686      H1691   1.083       .  S
C1687      C1688   1.409       .  A
C1688      C3555   1.385   1_554  A
C1688      F1689   1.358       .  S
C1693      C1694   1.407       .  A
C1693      C1698   1.403       .  A
C1693      H1700   1.083       .  S
C1694      C1695   1.407       .  A
C1695      C1696   1.388       .  A
C1695      F1702   1.358       .  S
C1696      C1697   1.399       .  A
C1696      H1701   1.084       .  S
C1697      C1698   1.405       .  A
C1698      F1699   1.357       .  S
C1703      C1704   1.405       .  A
C1703      C1708   1.404       .  A
C1703      H1710   1.084       .  S
C1704      C1705   1.402       .  A
C1705      C1706   1.397       .  A
C1705      F1712   1.358       .  S
C1706      C1707   1.408       .  A
C1706      H1711   1.084       .  S
C1707      C1708   1.406       .  A
C1708      F1709   1.357       .  S
C1713      C1714   1.405       .  A
C1713      C1718   1.395       .  A
C1713      H1720   1.083       .  S
C1714      C1715   1.411       .  A
C1715      C1716   1.404       .  A
C1715      F1722   1.357       .  S
C1716      C1717   1.403       .  A
C1716      H1721   1.083       .  S
C1717      C1718   1.402       .  A
C1718      F1719   1.356       .  S
C1723      C1728   1.407       .  A
C1723      C3596   1.405   1_554  A
C1723      H1730   1.083   1_554  S
C1724      C1725   1.407       .  A
C1724      C3595   1.410       .  A
C1725      C3598   1.393       .  A
C1725      F1732   1.358       .  S
C1726      C1727   1.406       .  A
C1726      C3597   1.392   1_554  A
C1726      H1731   1.083       .  S
C1727      C1728   1.411       .  A
C1728      F1729   1.357       .  S
C1733      C1734   1.405       .  A
C1733      C1738   1.408       .  A
C1733      H1740   1.083       .  S
C1734      C2003   1.469   1_554  S
C1734      C1735   1.404       .  A
C1735      C1736   1.390       .  A
C1735      F3614   1.359   1_554  S
C1736      C1737   1.400       .  A
C1736      H1741   1.084       .  S
C1737      C1738   1.407       .  A
C1738      F1739   1.357       .  S
F1742      C3607   1.357       .  S
C1743      C1744   1.404       .  A
C1743      C1748   1.395       .  A
C1743      H1750   1.083       .  S
C1744      C1745   1.409       .  A
C1745      C1746   1.407       .  A
C1745      F1752   1.357       .  S
C1746      C1747   1.409       .  A
C1746      H1751   1.083       .  S
C1747      C1748   1.412       .  A
C1748      F1749   1.358       .  S
C1753      C1754   1.405       .  A
C1753      C1758   1.394       .  A
C1753      H1760   1.084       .  S
C1754      C1755   1.407       .  A
C1755      C1756   1.411       .  A
C1755      F1762   1.357       .  S
C1756      C1757   1.410       .  A
C1756      H1761   1.083       .  S
C1757      C1758   1.405       .  A
C1758      F1759   1.358       .  S
C1763      C1764   1.402       .  A
C1763      C1768   1.408       .  A
C1763      H1770   1.083       .  S
C1764      C1765   1.403       .  A
C1765      C1766   1.398       .  A
C1765      F1772   1.358       .  S
C1766      C1767   1.407       .  A
C1766      H1771   1.083       .  S
C1767      C1768   1.416       .  A
C1768      F1769   1.357       .  S
C1773      C1774   1.407       .  A
C1773      C1778   1.402       .  A
C1773      H1780   1.083       .  S
C1774      C1775   1.410       .  A
C1775      C1776   1.393       .  A
C1775      F1782   1.358       .  S
C1776      C1777   1.398       .  A
C1776      H1781   1.084       .  S
C1777      C1778   1.404       .  A
C1778      F1779   1.357       .  S
C1783      C1784   1.405       .  A
C1783      C1788   1.405       .  A
C1783      H1790   1.083       .  S
C1784      C1785   1.406       .  A
C1785      C1786   1.391       .  A
C1785      F1792   1.358       .  S
C1786      C1787   1.406       .  A
C1786      H1791   1.083       .  S
C1787      C1788   1.411       .  A
C1788      F1789   1.357       .  S
C1793      C1794   1.403       .  A
C1793      C1798   1.404       .  A
C1793      H1800   1.083       .  S
C1794      C1795   1.403       .  A
C1795      C1796   1.393       .  A
C1795      F1802   1.359       .  S
C1796      C1797   1.405       .  A
C1796      H1801   1.083       .  S
C1797      C1798   1.407       .  A
C1798      F1799   1.357       .  S
C1803      C1804   1.401       .  A
C1803      C1808   1.390       .  A
C1803      H1810   1.084       .  S
C1804      C1805   1.409       .  A
C1805      C1806   1.407       .  A
C1805      F1812   1.357       .  S
C1806      C1807   1.405       .  A
C1806      H1811   1.083       .  S
C1807      C1808   1.407       .  A
C1808      F1809   1.358       .  S
C1813      C1814   1.404       .  A
C1813      C1818   1.408       .  A
C1813      H1820   1.083       .  S
C1814      C1815   1.407       .  A
C1815      C1816   1.396       .  A
C1815      F1822   1.357       .  S
C1816      C1817   1.405   1_455  A
C1816      H1821   1.083   1_455  S
C1817      C1818   1.415   1_655  A
C1818      F1819   1.357   1_455  S
C1823      C1824   1.404       .  A
C1823      C1828   1.393       .  A
C1823      H1830   1.084       .  S
C1824      C1825   1.411       .  A
C1825      C1826   1.405       .  A
C1825      F1832   1.357       .  S
C1826      C1827   1.405       .  A
C1826      H1831   1.083       .  S
C1827      C1828   1.408       .  A
C1828      F1829   1.358       .  S
C1833      C1834   1.404       .  A
C1833      C1838   1.410       .  A
C1833      H1840   1.083       .  S
C1834      C1835   1.406       .  A
C1835      C1836   1.398       .  A
C1835      F1842   1.358       .  S
C1836      C1837   1.407       .  A
C1836      H1841   1.083       .  S
C1837      C1838   1.414       .  A
C1838      F1839   1.357       .  S
C1843      C1844   1.409       .  A
C1843      C1848   1.406       .  A
C1843      H1850   1.083       .  S
C1844      C1845   1.408       .  A
C1845      C1846   1.392       .  A
C1845      F1852   1.357       .  S
C1846      C1847   1.401       .  A
C1846      H1851   1.085       .  S
C1847      C1848   1.404       .  A
C1848      F1849   1.357       .  S
C1853      C1854   1.401       .  A
C1853      C1858   1.398       .  A
C1853      H1860   1.083       .  S
C1854      C1855   1.400       .  A
C1855      C1856   1.394       .  A
C1855      F1862   1.358       .  S
C1856      C1857   1.404       .  A
C1856      H1861   1.084       .  S
C1857      C1858   1.407       .  A
C1858      F1859   1.358       .  S
C1863      C1864   1.406       .  A
C1863      C1868   1.396       .  A
C1863      H1870   1.083       .  S
C1864      C1865   1.407       .  A
C1865      C1866   1.396       .  A
C1865      F1872   1.358       .  S
C1866      C1867   1.400       .  A
C1866      H1871   1.084       .  S
C1867      C1868   1.400       .  A
C1868      F1869   1.356       .  S
O1873      C1888   1.268       .  A
O1873     Al1881   1.930       .  S
C1874      O1884   1.273       .  A
C1874      O1875   1.267       .  A
C1874      C3729   1.472       .  S
O1875     Al1877   1.892       .  S
O1876      C1878   1.260       .  A
O1876     Al1877   1.912       .  S
Al1877     O1885   1.892       .  S
Al1877     O1887   1.905       .  S
Al1877     O1886   1.784       .  S
C1878      O1891   1.262       .  A
C1878      C3686   1.476       .  S
O1879      C1889   1.260       .  A
O1879     Al1881   1.920       .  S
O1880      C1893   1.266       .  A
O1880     Al1890   1.928       .  S
Al1881     O1894   1.875       .  S
Al1881     O1891   1.921       .  S
Al1881     O1886   1.783       .  S
O1882      C1889   1.258       .  A
O1882     Al1890   1.892       .  S
O1883      C1892   1.256       .  A
O1883     Al1890   1.921       .  S
O1884     Al1890   1.936       .  S
O1885      C1892   1.253       .  A
O1886     Al1890   1.782       .  S
O1887      C1888   1.266       .  A
C1888      C3739   1.468       .  S
C1889      C3709   1.493       .  S
C1892      C3699   1.484       .  S
C1893      O1894   1.260       .  A
C1893      C3716   1.475       .  S
O1895      C1910   1.258       .  A
O1895     Al1903   1.869       .  S
C1896      O1906   1.261       .  A
C1896      O1897   1.272       .  A
C1896      C3646   1.481       .  S
O1897     Al1899   1.936       .  S
O1898      C1900   1.252       .  A
O1898     Al1899   1.871       .  S
Al1899     O1907   1.874       .  S
Al1899     O1909   1.924       .  S
Al1899     O1908   1.787       .  S
C1900      O1913   1.260       .  A
C1900      C3636   1.472       .  S
O1901      C1911   1.262       .  A
O1901     Al1903   1.913       .  S
O1902      C1915   1.265       .  A
O1902     Al1912   1.909       .  S
Al1903     O1916   1.916       .  S
Al1903     O1913   1.925       .  S
Al1903     O1908   1.790       .  S
O1904      C1911   1.264       .  A
O1904     Al1912   1.917       .  S
O1905      C1914   1.258       .  A
O1905     Al1912   1.934       .  S
O1906     Al1912   1.869       .  S
O1907      C1914   1.250       .  A
O1908     Al1912   1.791       .  S
O1909      C1910   1.264       .  A
C1910      C3659   1.482       .  S
C1911      C3676   1.484       .  S
C1914      C3696   1.488       .  S
C1915      O1916   1.266       .  A
C1915      C3666   1.464       .  S
O1917      C1932   1.259       .  A
O1917     Al1925   1.875       .  S
C1918      O1928   1.262       .  A
C1918      O1919   1.265       .  A
C1918      C3586   1.479       .  S
O1919     Al1921   1.924       .  S
O1920      C1922   1.256       .  A
O1920     Al1921   1.888       .  S
Al1921     O1929   1.881       .  S
Al1921     O1931   1.942       .  S
Al1921     O1930   1.783       .  S
C1922      O1935   1.261       .  A
C1922      C3576   1.477       .  S
O1923      C1933   1.268       .  A
O1923     Al1925   1.916       .  S
O1924      C1937   1.265       .  A
O1924     Al1934   1.928       .  S
Al1925     O1938   1.899       .  S
Al1925     O1935   1.934       .  S
Al1925     O1930   1.787       .  S
O1926      C1933   1.267       .  A
O1926     Al1934   1.916       .  S
O1927      C1936   1.263       .  A
O1927     Al1934   1.930       .  S
O1928     Al1934   1.895       .  S
O1929      C1936   1.257       .  A
O1930     Al1934   1.783       .  S
O1931      C1932   1.267       .  A
C1932      C3599   1.469       .  S
C1933      C3629   1.482       .  S
C1936      C3619   1.487       .  S
C1937      O1938   1.260       .  A
C1937      C3609   1.470       .  S
O1939      C1954   1.267       .  A
O1939     Al1947   1.915       .  S
C1940      O1950   1.271       .  A
C1940      O1941   1.266       .  A
C1940      C3559   1.472       .  S
O1941     Al1943   1.880       .  S
O1942      C1944   1.259       .  A
O1942     Al1943   1.903       .  S
Al1943     O1951   1.888       .  S
Al1943     O1953   1.888       .  S
Al1943     O1952   1.784       .  S
C1944      O1957   1.263       .  A
C1944      C3539   1.478       .  S
O1945      C1955   1.260       .  A
O1945     Al1947   1.911       .  S
O1946      C1959   1.264       .  A
O1946     Al1956   1.926       .  S
Al1947     O1960   1.882       .  S
Al1947     O1957   1.929       .  S
Al1947     O1952   1.783       .  S
O1948      C1955   1.260       .  A
O1948     Al1956   1.895       .  S
O1949      C1958   1.258       .  A
O1949     Al1956   1.918       .  S
O1950     Al1956   1.927       .  S
O1951      C1958   1.254       .  A
O1952     Al1956   1.785       .  S
O1953      C1954   1.263       .  A
C1954      C3566   1.466       .  S
C1955      C3549   1.490       .  S
C1958      C3616   1.487       .  S
C1959      O1960   1.259       .  A
C1959      C3669   1.474       .  S
O1961      C1976   1.258       .  A
O1961     Al1969   1.864       .  S
C1962      O1972   1.260       .  A
C1962      O1963   1.266       .  A
C1962      C3516   1.480       .  S
O1964      C1966   1.254       .  A
O1964     Al1965   1.889       .  S
Al1965     O1973   1.888       .  S
Al1965     O1975   1.945       .  S
Al1965     O1974   1.782       .  S
C1966      O1979   1.262       .  A
C1966      C3489   1.480       .  S
O1967      C1977   1.265       .  A
O1967     Al1969   1.907       .  S
O1968      C1981   1.262       .  A
O1968     Al1978   1.912       .  S
Al1969     O1982   1.913       .  S
Al1969     O1979   1.938       .  S
Al1969     O1974   1.787       .  S
O1970      C1977   1.266       .  A
O1970     Al1978   1.913       .  S
O1971      C1980   1.261       .  A
O1971     Al1978   1.923       .  S
O1973      C1980   1.257       .  A
O1974     Al1978   1.783       .  S
O1975      C1976   1.269       .  A
C1976      C3529   1.468       .  S
C1980      C3496   1.483       .  S
C1981      O1982   1.263       .  A
C1981      C3719   1.465       .  S
O1983      C1998   1.257       .  A
C1984      O1994   1.262       .  A
C1984      O1985   1.270       .  A
C1984      C3469   1.475       .  S
O1985     Al1987   1.929       .  S
O1986      C1988   1.253       .  A
O1986     Al1987   1.887       .  S
Al1987     O1995   1.884       .  S
Al1987     O1997   1.944       .  S
Al1987     O1996   1.784       .  S
C1988      O2001   1.258       .  A
C1988      C3446   1.477       .  S
O1989      C1999   1.264       .  A
O1989     Al1991   1.911       .  S
O1990      C2003   1.266       .  A
O1990     Al2000   1.922       .  S
Al1991     O2004   1.906       .  S
Al1991     O2001   1.923       .  S
Al1991     O1996   1.789       .  S
O1992      C1999   1.265       .  A
O1992     Al2000   1.915       .  S
O1993      C2002   1.259       .  A
O1993     Al2000   1.925       .  S
O1994     Al2000   1.880       .  S
O1995      C2002   1.253       .  A
O1996     Al2000   1.787       .  S
C1998      C3476   1.480       .  S
C1999      C3456   1.477       .  S
C2002      C3499   1.489       .  S
C2003      O2004   1.264       .  A
O2005      C2020   1.262       .  A
O2005     Al2013   1.884       .  S
C2006      O2016   1.264       .  A
C2006      O2007   1.271       .  A
C2006      C3416   1.481       .  S
O2007     Al2009   1.937       .  S
O2008      C2010   1.258       .  A
O2008     Al2009   1.909       .  S
Al2009     O2017   1.928       .  S
Al2009     O2019   1.926       .  S
Al2009     O2018   1.785       .  S
C2010      O2023   1.258       .  A
C2010      C3449   1.479       .  S
O2011      C2021   1.267       .  A
O2011     Al2013   1.935       .  S
O2012      C2025   1.265       .  A
O2012     Al2022   1.911       .  S
Al2013     O2026   1.911       .  S
Al2013     O2023   1.905       .  S
Al2013     O2018   1.778       .  S
O2014      C2021   1.261       .  A
O2014     Al2022   1.905       .  S
O2015      C2024   1.254       .  A
O2015     Al2022   1.885       .  S
O2016     Al2022   1.871       .  S
O2017      C2024   1.259       .  A
O2018     Al2022   1.776       .  S
O2019      C2020   1.267       .  A
C2020      C3436   1.471       .  S
C2021      C3396   1.481       .  S
C2024      C3406   1.485       .  S
C2025      O2026   1.265       .  A
C2025      C3429   1.465       .  S
O2027      C2042   1.259       .  A
O2027     Al2035   1.874       .  S
C2028      O2038   1.264       .  A
C2028      O2029   1.272       .  A
C2028      C3356   1.468       .  S
O2029     Al2031   1.940       .  S
O2030      C2032   1.260       .  A
O2030     Al2031   1.895       .  S
Al2031     O2039   1.920       .  S
Al2031     O2041   1.927       .  S
Al2031     O2040   1.785       .  S
C2032      O2045   1.261       .  A
C2032      C3389   1.493       .  S
O2033      C2043   1.264       .  A
O2033     Al2035   1.930       .  S
O2034      C2047   1.263       .  A
O2034     Al2044   1.894       .  S
Al2035     O2048   1.928       .  S
Al2035     O2045   1.923       .  S
Al2035     O2040   1.781       .  S
O2036      C2043   1.260       .  A
O2036     Al2044   1.906       .  S
O2037      C2046   1.254       .  A
O2037     Al2044   1.893       .  S
O2038     Al2044   1.870       .  S
O2039      C2046   1.257       .  A
O2040     Al2044   1.776       .  S
O2041      C2042   1.267       .  A
C2042      C3379   1.470       .  S
C2043      C3346   1.481       .  S
C2046      C3409   1.478       .  S
C2047      O2048   1.268       .  A
C2047      C3369   1.458       .  S
O2049      C2064   1.263       .  A
O2049     Al2057   1.889       .  S
C2050      O2060   1.264       .  A
C2050      O2051   1.271       .  A
C2050      C3526   1.480       .  S
O2051     Al2053   1.936       .  S
O2052      C2054   1.259       .  A
O2052     Al2053   1.912       .  S
Al2053     O2061   1.941       .  S
Al2053     O2063   1.927       .  S
Al2053     O2062   1.786       .  S
C2054      O2067   1.259       .  A
C2054      C3339   1.485       .  S
O2055      C2065   1.268       .  A
O2055     Al2057   1.938       .  S
O2056      C2069   1.264       .  A
O2056     Al2066   1.908       .  S
Al2057     O2070   1.922       .  S
Al2057     O2067   1.913       .  S
Al2057     O2062   1.783       .  S
O2058      C2065   1.262       .  A
O2058     Al2066   1.912       .  S
O2059      C2068   1.255       .  A
O2059     Al2066   1.887       .  S
O2060     Al2066   1.876       .  S
O2061      C2068   1.261       .  A
O2062     Al2066   1.775       .  S
O2063      C2064   1.268       .  A
C2064      C3319   1.471       .  S
C2065      C3706   1.481       .  S
C2068      C3326   1.498       .  S
C2069      O2070   1.264       .  A
C2069      C3519   1.466       .  S
O2071      C2086   1.262       .  A
O2071     Al2079   1.885       .  S
C2072      O2082   1.261       .  A
C2072      O2073   1.270       .  A
C2072      C3479   1.475       .  S
O2073     Al2075   1.937       .  S
O2074      C2076   1.260       .  A
O2074     Al2075   1.916       .  S
Al2075     O2083   1.937       .  S
Al2075     O2085   1.926       .  S
Al2075     O2084   1.790       .  S
C2076      O2089   1.260       .  A
C2076      C3306   1.491       .  S
O2077      C2087   1.265       .  A
O2077     Al2079   1.932       .  S
O2078      C2091   1.262       .  A
O2078     Al2088   1.899       .  S
Al2079     O2092   1.928       .  S
Al2079     O2089   1.914       .  S
Al2079     O2084   1.781       .  S
O2080      C2087   1.263       .  A
O2080     Al2088   1.916       .  S
O2081      C2090   1.255       .  A
O2081     Al2088   1.893       .  S
O2082     Al2088   1.862       .  S
O2083      C2090   1.261       .  A
O2084     Al2088   1.777       .  S
O2085      C2086   1.268       .  A
C2086      C3439   1.468       .  S
C2087      C3626   1.482       .  S
C2090      C3329   1.493       .  S
C2091      O2092   1.266       .  A
C2091      C3466   1.467       .  S
O2093      C2108   1.260       .  A
O2093     Al2101   1.880       .  S
C2094      O2104   1.263       .  A
C2094      O2095   1.271       .  A
C2094      C3289   1.474       .  S
Al2097     O2105   1.925       .  S
Al2097     O2107   1.935       .  S
Al2097     O2106   1.784       .  S
C2098      O2111   1.262       .  A
C2098      C3486   1.482   1_565  S
O2099      C2109   1.264       .  A
O2099     Al2101   1.927       .  S
O2100      C2113   1.264       .  A
O2100     Al2110   1.905       .  S
Al2101     O2114   1.929       .  S
Al2101     O2111   1.917       .  S
Al2101     O2106   1.777       .  S
O2102      C2109   1.262       .  A
O2102     Al2110   1.910       .  S
O2103      C2112   1.256       .  A
O2103     Al2110   1.889       .  S
O2105      C2112   1.260       .  A
O2106     Al2110   1.771       .  S
O2107      C2108   1.268       .  A
C2108      C3316   1.471       .  S
C2109      C3269   1.479       .  S
C2112      C3276   1.484       .  S
C2113      O2114   1.267       .  A
C2113      C3296   1.465       .  S
C2116      O2126   1.261       .  A
C2116      O2117   1.270       .  A
C2116      C3246   1.466       .  S
O2117     Al2119   1.937       .  S
O2118      C2120   1.258       .  A
O2118     Al2119   1.889       .  S
Al2119     O2127   1.909       .  S
Al2119     O2129   1.929       .  S
Al2119     O2128   1.782       .  S
C2120      O2133   1.262       .  A
C2120      C3239   1.490       .  S
O2121      C2131   1.264       .  A
O2121     Al2123   1.919       .  S
O2122     Al2132   1.888       .  S
Al2123     O2133   1.925       .  S
Al2123     O2128   1.778       .  S
O2124      C2131   1.264       .  A
O2124     Al2132   1.920       .  S
O2125      C2134   1.258       .  A
O2125     Al2132   1.901       .  S
O2126     Al2132   1.862       .  S
O2127      C2134   1.257       .  A
O2128     Al2132   1.774       .  S
O2129      C2130   1.267       .  A
C2131      C3226   1.478       .  S
C2134      C3279   1.476       .  S
C2135      O2136   1.266       .  A
C2135      C3256   1.459       .  S
O2137      C2152   1.269       .  A
O2137     Al2145   1.921       .  S
C2138      O2148   1.273       .  A
C2138      O2139   1.262       .  A
C2138      C3259   1.470       .  S
O2139     Al2141   1.857       .  S
O2140      C2142   1.259       .  A
O2140     Al2141   1.911       .  S
Al2141     O2149   1.890       .  S
Al2141     O2151   1.888       .  S
Al2141     O2150   1.783       .  S
C2142      O2155   1.264       .  A
C2142      C3386   1.482       .  S
O2143      C2153   1.259       .  A
O2143     Al2145   1.915       .  S
O2144      C2157   1.267       .  A
O2144     Al2154   1.931       .  S
Al2145     O2158   1.883       .  S
Al2145     O2155   1.934       .  S
Al2145     O2150   1.780       .  S
O2146      C2153   1.261       .  A
O2146     Al2154   1.905       .  S
O2147      C2156   1.259       .  A
O2147     Al2154   1.930       .  S
O2148     Al2154   1.942       .  S
O2149      C2156   1.254       .  A
O2150     Al2154   1.786       .  S
O2151      C2152   1.264       .  A
C2152      C3249   1.466       .  S
C2153      C3206   1.495       .  S
C2156      C3196   1.485       .  S
C2157      O2158   1.260       .  A
C2157      C3216   1.473       .  S
O2159      C2174   1.256       .  A
O2159     Al2167   1.857       .  S
C2160      O2170   1.263       .  A
C2160      O2161   1.269       .  A
C2160      C3299   1.483       .  S
O2161     Al2163   1.930       .  S
O2162      C2164   1.258       .  A
O2162     Al2163   1.899       .  S
Al2163     O2171   1.898       .  S
Al2163     O2173   1.935       .  S
Al2163     O2172   1.787       .  S
C2164      O2177   1.260       .  A
C2164      C3336   1.478       .  S
O2165      C2175   1.261       .  A
O2165     Al2167   1.909       .  S
O2166      C2179   1.265       .  A
O2166     Al2176   1.910       .  S
Al2167     O2180   1.907       .  S
Al2167     O2177   1.920       .  S
Al2167     O2172   1.789       .  S
O2168      C2175   1.261       .  A
O2168     Al2176   1.907       .  S
O2169      C2178   1.259       .  A
O2169     Al2176   1.926       .  S
O2170     Al2176   1.885       .  S
O2171      C2178   1.257       .  A
O2172     Al2176   1.793       .  S
O2173      C2174   1.265       .  A
C2174      C3286   1.483       .  S
C2175      C3186   1.480   1_455  S
C2178      C3199   1.492       .  S
C2179      O2180   1.265       .  A
C2179      C3179   1.465       .  S
O2181      C2196   1.269       .  A
O2181     Al2189   1.915       .  S
C2182      O2192   1.274       .  A
C2182      O2183   1.265       .  A
C2182      C3136   1.468       .  S
O2183     Al2185   1.860       .  S
O2184      C2186   1.256       .  A
O2184     Al2185   1.900       .  S
Al2185     O2193   1.874       .  S
Al2185     O2195   1.890       .  S
Al2185     O2194   1.782       .  S
C2186      O2199   1.263       .  A
C2186      C3116   1.478       .  S
O2187      C2197   1.257       .  A
O2187     Al2189   1.898       .  S
O2188      C2201   1.267       .  A
O2188     Al2198   1.931       .  S
Al2189     O2202   1.876       .  S
Al2189     O2199   1.936       .  S
Al2189     O2194   1.779       .  S
O2190      C2197   1.259       .  A
O2190     Al2198   1.903       .  S
O2191      C2200   1.257       .  A
O2191     Al2198   1.928       .  S
O2192     Al2198   1.943       .  S
O2193      C2200   1.251       .  A
O2194     Al2198   1.789       .  S
O2195      C2196   1.265       .  A
C2196      C3149   1.465       .  S
C2197      C3169   1.489       .  S
C2200      C3156   1.486       .  S
C2201      O2202   1.260       .  A
C2201      C3129   1.472       .  S
O2203      C2218   1.266       .  A
O2203     Al2211   1.914       .  S
C2204      O2214   1.271       .  A
C2204      O2205   1.262       .  A
C2204      C3096   1.479       .  S
O2205     Al2207   1.868       .  S
O2206      C2208   1.261       .  A
O2206     Al2207   1.911       .  S
Al2207     O2215   1.893       .  S
Al2207     O2217   1.895       .  S
Al2207     O2216   1.783       .  S
C2208      O2221   1.266       .  A
C2208      C3089   1.484       .  S
O2209      C2219   1.258       .  A
O2209     Al2211   1.911       .  S
O2210      C2223   1.268       .  A
O2210     Al2220   1.935       .  S
Al2211     O2224   1.884       .  S
Al2211     O2221   1.936       .  S
Al2211     O2216   1.782       .  S
O2212      C2219   1.257       .  A
O2212     Al2220   1.888       .  S
O2213      C2222   1.256       .  A
O2213     Al2220   1.908       .  S
O2214     Al2220   1.934       .  S
O2215      C2222   1.255       .  A
O2216     Al2220   1.789       .  S
O2217      C2218   1.263       .  A
C2218      C3106   1.465       .  S
C2219      C3229   1.488       .  S
C2222      C3159   1.480       .  S
C2223      O2224   1.261       .  A
C2223      C3219   1.473       .  S
O2225      C2240   1.258       .  A
C2226      O2236   1.263       .  A
C2226      O2227   1.268       .  A
C2226      C3069   1.480       .  S
O2227     Al2229   1.926       .  S
O2228      C2230   1.253       .  A
O2228     Al2229   1.881       .  S
Al2229     O2237   1.880       .  S
Al2229     O2239   1.931       .  S
Al2229     O2238   1.783       .  S
C2230      O2243   1.262       .  A
C2230      C3036   1.475       .  S
O2231      C2241   1.260       .  A
O2231     Al2233   1.900       .  S
O2232      C2245   1.264       .  A
O2232     Al2242   1.906       .  S
Al2233     O2246   1.921       .  S
Al2233     O2243   1.933       .  S
Al2233     O2238   1.789       .  S
O2234      C2241   1.264       .  A
O2234     Al2242   1.914       .  S
O2235      C2244   1.260       .  A
O2235     Al2242   1.932       .  S
O2236     Al2242   1.883       .  S
O2237      C2244   1.254       .  A
O2238     Al2242   1.790       .  S
C2240      C3076   1.481       .  S
C2241      C3059   1.473       .  S
C2244      C3046   1.482       .  S
C2245      O2246   1.267       .  A
O2247      C2262   1.260       .  A
O2247     Al2255   1.875       .  S
C2248      O2258   1.265       .  A
C2248      O2249   1.271       .  A
C2248      C3016   1.474       .  S
O2250      C2252   1.251       .  A
O2250     Al2251   1.871       .  S
Al2251     O2259   1.881       .  S
Al2251     O2261   1.909       .  S
Al2251     O2260   1.789       .  S
C2252      O2265   1.260       .  A
C2252      C3009   1.474       .  S
O2253      C2263   1.263       .  A
O2253     Al2255   1.924       .  S
O2254      C2267   1.265       .  A
O2254     Al2264   1.907       .  S
Al2255     O2268   1.921       .  S
Al2255     O2265   1.927       .  S
Al2255     O2260   1.791       .  S
O2256      C2263   1.261       .  A
O2256     Al2264   1.907       .  S
O2257      C2266   1.255       .  A
O2257     Al2264   1.920       .  S
O2259      C2266   1.251       .  A
O2260     Al2264   1.789       .  S
O2261      C2262   1.263       .  A
C2262      C3026   1.476       .  S
C2266      C3049   1.485       .  S
C2267      O2268   1.268       .  A
C2267      C3176   1.465       .  S
O2269      C2284   1.260       .  A
O2269     Al2277   1.871       .  S
C2270      O2280   1.261       .  A
C2270      O2271   1.270       .  A
C2270      C3029   1.473       .  S
O2271     Al2273   1.933       .  S
O2272      C2274   1.257       .  A
O2272     Al2273   1.894       .  S
Al2273     O2281   1.918       .  S
Al2273     O2283   1.926       .  S
Al2273     O2282   1.789       .  S
C2274      O2287   1.259       .  A
C2274      C2996   1.493       .  S
O2275      C2285   1.264       .  A
O2275     Al2277   1.924       .  S
O2276      C2289   1.262       .  A
O2276     Al2286   1.897       .  S
Al2277     O2290   1.927       .  S
Al2277     O2287   1.920       .  S
Al2277     O2282   1.784       .  S
O2278      C2285   1.263       .  A
O2278     Al2286   1.916       .  S
O2279      C2288   1.256       .  A
O2279     Al2286   1.896       .  S
O2280     Al2286   1.861       .  S
O2281      C2288   1.256       .  A
O2282     Al2286   1.777       .  S
O2283      C2284   1.268       .  A
C2284      C2976   1.465       .  S
C2285      C3189   1.482       .  S
C2288      C2986   1.484       .  S
C2289      O2290   1.266       .  A
C2289      C3019   1.464       .  S
O2291      C2306   1.263       .  A
O2291     Al2299   1.886       .  S
C2292      O2302   1.264       .  A
C2292      O2293   1.272       .  A
C2292      C3079   1.482       .  S
O2293     Al2295   1.942       .  S
O2294      C2296   1.258       .  A
O2294     Al2295   1.909       .  S
Al2295     O2303   1.936       .  S
Al2295     O2305   1.931       .  S
Al2295     O2304   1.786       .  S
C2296      O2309   1.258       .  A
C2296      C3579   1.480       .  S
O2297      C2307   1.267       .  A
O2297     Al2299   1.931       .  S
O2298      C2311   1.264       .  A
O2298     Al2308   1.908       .  S
Al2299     O2312   1.920       .  S
Al2299     O2309   1.908       .  S
Al2299     O2304   1.779       .  S
O2300      C2307   1.261       .  A
O2300     Al2308   1.913       .  S
O2301      C2310   1.254       .  A
O2301     Al2308   1.882       .  S
O2302     Al2308   1.873       .  S
O2303      C2310   1.260       .  A
O2304     Al2308   1.775       .  S
O2305      C2306   1.269       .  A
C2306      C2966   1.473       .  S
C2307      C3166   1.477       .  S
C2310      C2989   1.488       .  S
C2311      O2312   1.265       .  A
C2311      C3066   1.463       .  S
O2313      C2328   1.260       .  A
O2313     Al2321   1.880       .  S
C2314      O2324   1.264       .  A
C2314      O2315   1.271       .  A
C2314      C3596   1.477       .  S
O2315     Al2317   1.944       .  S
O2316      C2318   1.260       .  A
O2316     Al2317   1.908       .  S
Al2317     O2325   1.930       .  S
Al2317     O2327   1.934       .  S
Al2317     O2326   1.786       .  S
C2318      O2331   1.261       .  A
C2318      C3039   1.482       .  S
O2319      C2329   1.265       .  A
O2319     Al2321   1.929       .  S
O2320      C2333   1.267       .  A
O2320     Al2330   1.920       .  S
Al2321     O2334   1.924       .  S
Al2321     O2331   1.914       .  S
Al2321     O2326   1.775       .  S
O2322      C2329   1.261       .  A
O2322     Al2330   1.907       .  S
O2323      C2332   1.257       .  A
O2323     Al2330   1.894       .  S
O2324     Al2330   1.884       .  S
O2325      C2332   1.261       .  A
O2326     Al2330   1.773       .  S
O2327      C2328   1.268       .  A
C2328      C2969   1.470       .  S
C2329      C3459   1.478       .  S
C2332      C2956   1.492       .  S
C2333      O2334   1.267       .  A
C2333      C3589   1.474       .  S
O2335      C2350   1.261       .  A
O2335     Al2343   1.891       .  S
C2336      O2346   1.263       .  A
C2336      O2337   1.268       .  A
C2336      C3569   1.462       .  S
O2337     Al2339   1.924       .  S
O2338      C2340   1.262       .  A
O2338     Al2339   1.909       .  S
Al2339     O2347   1.922       .  S
Al2339     O2349   1.914       .  S
Al2339     O2348   1.789       .  S
C2340      O2353   1.260       .  A
C2340      C2946   1.487       .  S
O2341      C2351   1.266       .  A
O2341     Al2343   1.943       .  S
O2342      C2355   1.263       .  A
O2342     Al2352   1.897       .  S
Al2343     O2356   1.908       .  S
Al2343     O2353   1.906       .  S
Al2343     O2348   1.778       .  S
O2344      C2351   1.259       .  A
O2344     Al2352   1.899       .  S
O2345      C2354   1.256       .  A
O2345     Al2352   1.893       .  S
O2346     Al2352   1.872       .  S
O2347      C2354   1.259       .  A
O2348     Al2352   1.780       .  S
O2349      C2350   1.263       .  A
C2350      C2936   1.465       .  S
C2351      C3679   1.486       .  S
C2354      C2959   1.482       .  S
C2355      O2356   1.265       .  A
C2355      C3556   1.460       .  S
C2358      O2368   1.265       .  A
C2358      O2359   1.269       .  A
C2358      C2916   1.477       .  S
O2359     Al2361   1.929       .  S
O2360      C2362   1.259       .  A
O2360     Al2361   1.892       .  S
Al2361     O2369   1.920       .  S
Al2361     O2371   1.913       .  S
Al2361     O2370   1.782       .  S
C2362      O2375   1.262       .  A
C2362      C3536   1.490       .  S
O2363      C2373   1.264       .  A
O2363     Al2365   1.928       .  S
O2364     Al2374   1.900       .  S
Al2365     O2375   1.922       .  S
Al2365     O2370   1.781       .  S
O2366      C2373   1.261       .  A
O2366     Al2374   1.906       .  S
O2367      C2376   1.256       .  A
O2367     Al2374   1.895       .  S
O2368     Al2374   1.874       .  S
O2369      C2376   1.258       .  A
O2370     Al2374   1.775       .  S
O2371      C2372   1.264       .  A
C2373      C2899   1.482       .  S
C2376      C2909   1.486       .  S
C2377      O2378   1.270       .  A
C2377      C2926   1.459       .  S
O2379      C2394   1.259       .  A
O2379     Al2387   1.879       .  S
C2380      O2390   1.263       .  A
C2380      O2381   1.272       .  A
C2380      C2879   1.472       .  S
Al2383     O2391   1.915       .  S
Al2383     O2393   1.918       .  S
Al2383     O2392   1.790       .  S
C2384      O2397   1.258       .  A
O2385      C2395   1.261       .  A
O2385     Al2387   1.920       .  S
O2386      C2399   1.264       .  A
O2386     Al2396   1.898       .  S
Al2387     O2400   1.906       .  S
Al2387     O2397   1.901       .  S
Al2387     O2392   1.779       .  S
O2388      C2395   1.259       .  A
O2388     Al2396   1.905       .  S
O2389      C2398   1.256       .  A
O2389     Al2396   1.895       .  S
O2391      C2398   1.258       .  A
O2392     Al2396   1.781       .  S
O2393      C2394   1.264       .  A
C2394      C2979   1.462       .  S
C2395      C2866   1.472       .  S
C2398      C2906   1.479       .  S
C2399      O2400   1.265       .  A
C2399      C2889   1.463       .  S
O2401      C2416   1.259       .  A
O2401     Al2409   1.876       .  S
C2402      O2412   1.265       .  A
C2402      O2403   1.269       .  A
C2402      C2836   1.467       .  S
O2403     Al2405   1.925       .  S
O2404      C2406   1.259       .  A
O2404     Al2405   1.892       .  S
Al2405     O2413   1.928       .  S
Al2405     O2415   1.908       .  S
Al2405     O2414   1.786       .  S
C2406      O2419   1.260       .  A
C2406      C3689   1.488       .  S
O2407      C2417   1.263       .  A
O2407     Al2409   1.932       .  S
O2408      C2421   1.267       .  A
O2408     Al2418   1.903       .  S
Al2409     O2422   1.924       .  S
Al2409     O2419   1.915       .  S
Al2409     O2414   1.775       .  S
O2410      C2417   1.259       .  A
O2410     Al2418   1.917       .  S
O2411      C2420   1.255       .  A
O2411     Al2418   1.894       .  S
O2412     Al2418   1.874       .  S
O2413      C2420   1.259       .  A
O2414     Al2418   1.775       .  S
O2415      C2416   1.262       .  A
C2416      C2856   1.457       .  S
C2417      C2819   1.482       .  S
C2420      C2826   1.491       .  S
C2421      O2422   1.270       .  A
C2421      C2849   1.466       .  S
O2423      C2438   1.259       .  A
O2423     Al2431   1.884       .  S
C2424      O2434   1.264       .  A
C2424      O2425   1.269       .  A
C2424      C2796   1.470       .  S
O2425     Al2427   1.935       .  S
O2426      C2428   1.260       .  A
O2426     Al2427   1.895       .  S
Al2427     O2435   1.920       .  S
Al2427     O2437   1.920       .  S
Al2427     O2436   1.790       .  S
C2428      O2441   1.261       .  A
C2428      C3119   1.491       .  S
O2429      C2439   1.263       .  A
O2429     Al2431   1.934       .  S
O2430      C2443   1.263       .  A
O2430     Al2440   1.897       .  S
Al2431     O2444   1.914       .  S
Al2431     O2441   1.918       .  S
Al2431     O2436   1.782       .  S
O2432      C2439   1.258       .  A
O2432     Al2440   1.902       .  S
O2433      C2442   1.257       .  A
O2433     Al2440   1.899       .  S
O2434     Al2440   1.879       .  S
O2435      C2442   1.259       .  A
O2436     Al2440   1.782       .  S
O2437      C2438   1.263       .  A
C2438      C2786   1.467       .  S
C2439      C2776   1.485       .  S
C2442      C2829   1.482       .  S
C2443      O2444   1.267       .  A
C2443      C2806   1.463       .  S
O2445      C2460   1.260       .  A
O2445     Al2453   1.877       .  S
C2446      O2456   1.264       .  A
C2446      O2447   1.270       .  A
C2446      C3736   1.467       .  S
Al2449     O2457   1.929       .  S
Al2449     O2459   1.910       .  S
Al2449     O2458   1.786       .  S
C2450      O2463   1.261       .  A
O2451      C2461   1.265       .  A
O2451     Al2453   1.927       .  S
O2452      C2465   1.264       .  A
O2452     Al2462   1.910       .  S
Al2453     O2466   1.931       .  S
Al2453     O2463   1.919       .  S
Al2453     O2458   1.784       .  S
O2454      C2461   1.261       .  A
O2454     Al2462   1.898       .  S
O2455      C2464   1.253       .  A
O2455     Al2462   1.874       .  S
O2457      C2464   1.259       .  A
O2458     Al2462   1.774       .  S
O2459      C2460   1.264       .  A
C2460      C2859   1.461       .  S
C2461      C3509   1.476       .  S
C2464      C2756   1.484       .  S
C2465      O2466   1.266       .  A
C2465      C3726   1.473       .  S
C2468      O2478   1.264       .  A
C2468      O2469   1.274       .  A
C2468      C3656   1.477       .  S
O2469     Al2471   1.947       .  S
O2470      C2472   1.257       .  A
O2470     Al2471   1.883       .  S
Al2471     O2479   1.925       .  S
Al2471     O2481   1.923       .  S
Al2471     O2480   1.784       .  S
C2472      O2485   1.264       .  A
C2472      C3086   1.495       .  S
O2473      C2483   1.264       .  A
O2473     Al2475   1.931       .  S
O2474     Al2484   1.898       .  S
Al2475     O2485   1.936       .  S
Al2475     O2480   1.779       .  S
O2476      C2483   1.258       .  A
O2476     Al2484   1.906       .  S
O2477      C2486   1.253       .  A
O2477     Al2484   1.884       .  S
O2478     Al2484   1.869       .  S
O2479      C2486   1.258       .  A
O2480     Al2484   1.775       .  S
O2481      C2482   1.265       .  A
C2483      C3546   1.483       .  S
C2486      C2759   1.489       .  S
C2487      O2488   1.266       .  A
C2487      C3649   1.460       .  S
O2489      C2504   1.260       .  A
O2489     Al2497   1.876       .  S
C2490      O2500   1.264       .  A
C2490      O2491   1.270       .  A
C2490      C3146   1.483       .  S
O2491     Al2493   1.931       .  S
O2492      C2494   1.257       .  A
O2492     Al2493   1.884       .  S
Al2493     O2501   1.906       .  S
Al2493     O2503   1.933       .  S
Al2493     O2502   1.782       .  S
C2494      O2507   1.258       .  A
C2494      C2736   1.484       .  S
O2495      C2505   1.264       .  A
O2495     Al2497   1.921       .  S
O2496      C2509   1.264       .  A
O2496     Al2506   1.906       .  S
Al2497     O2510   1.904       .  S
Al2497     O2507   1.913       .  S
Al2497     O2502   1.782       .  S
O2498      C2505   1.262       .  A
O2498     Al2506   1.905       .  S
O2499      C2508   1.256       .  A
O2499     Al2506   1.892       .  S
O2500     Al2506   1.879       .  S
O2501      C2508   1.256       .  A
O2502     Al2506   1.778       .  S
O2503      C2504   1.268       .  A
C2504      C2789   1.470       .  S
C2505      C3056   1.472       .  S
C2508      C2726   1.477       .  S
C2509      O2510   1.264       .  A
C2509      C3139   1.467       .  S
O2511      C2526   1.259       .  A
O2511     Al2519   1.885       .  S
C2512      O2522   1.264       .  A
C2512      O2513   1.275       .  A
C2512      C3109   1.473       .  S
O2513     Al2515   1.952       .  S
O2514      C2516   1.259       .  A
O2514     Al2515   1.885       .  S
Al2515     O2523   1.924       .  S
Al2515     O2525   1.935       .  S
Al2515     O2524   1.783       .  S
C2516      O2529   1.262       .  A
C2516      C3639   1.488       .  S
O2517      C2527   1.264       .  A
O2517     Al2519   1.937       .  S
O2518      C2531   1.262       .  A
O2518     Al2528   1.879       .  S
Al2519     O2532   1.922       .  S
Al2519     O2529   1.919       .  S
Al2519     O2524   1.777       .  S
O2520      C2527   1.258       .  A
O2520     Al2528   1.906       .  S
O2521      C2530   1.255       .  A
O2521     Al2528   1.889       .  S
O2522     Al2528   1.857       .  S
O2523      C2530   1.259       .  A
O2524     Al2528   1.779       .  S
O2525      C2526   1.267       .  A
C2526      C2746   1.478       .  S
C2527      C3209   1.483       .  S
C2530      C2729   1.486       .  S
C2531      O2532   1.268       .  A
C2531      C3099   1.446       .  S
O2533      C2548   1.270       .  A
O2533     Al2541   1.920       .  S
C2534      O2544   1.273       .  A
C2534      O2535   1.265       .  A
C2534      C2886   1.470       .  S
O2535     Al2537   1.867       .  S
O2536      C2538   1.257       .  A
O2536     Al2537   1.905       .  S
Al2537     O2545   1.891       .  S
Al2537     O2547   1.894       .  S
Al2537     O2546   1.785       .  S
C2538      O2551   1.262       .  A
C2538      C2999   1.482       .  S
O2539      C2549   1.260       .  A
O2539     Al2541   1.912       .  S
O2540      C2553   1.264       .  A
O2540     Al2550   1.921       .  S
Al2541     O2554   1.875       .  S
Al2541     O2551   1.934       .  S
Al2541     O2546   1.778       .  S
O2542      C2549   1.259       .  A
O2542     Al2550   1.899       .  S
O2543      C2552   1.258       .  A
O2543     Al2550   1.925       .  S
O2544     Al2550   1.937       .  S
O2545      C2552   1.253       .  A
O2546     Al2550   1.787       .  S
O2547      C2548   1.266       .  A
C2548      C2876   1.463       .  S
C2549      C2816   1.493       .  S
C2552      C2716   1.486       .  S
C2553      O2554   1.258       .  A
C2553      C2706   1.464       .  S
O2555      C2570   1.258       .  A
O2555     Al2563   1.863       .  S
C2556      O2566   1.262       .  A
C2556      O2557   1.267       .  A
C2556      C2929   1.478       .  S
O2557     Al2559   1.919       .  S
O2558      C2560   1.253       .  A
O2558     Al2559   1.890       .  S
Al2559     O2567   1.883       .  S
Al2559     O2569   1.925       .  S
Al2559     O2568   1.786       .  S
C2560      O2573   1.257       .  A
C2560      C2949   1.472       .  S
O2561      C2571   1.266       .  A
O2561     Al2563   1.912       .  S
O2562      C2575   1.264       .  A
O2562     Al2572   1.923       .  S
Al2563     O2576   1.896       .  S
Al2563     O2573   1.918       .  S
Al2563     O2568   1.790       .  S
O2564      C2571   1.266       .  A
O2564     Al2572   1.916       .  S
O2565      C2574   1.259       .  A
O2565     Al2572   1.924       .  S
O2566     Al2572   1.877       .  S
O2567      C2574   1.254       .  A
O2568     Al2572   1.789       .  S
O2569      C2570   1.266       .  A
C2570      C2919   1.470       .  S
C2571      C3349   1.480       .  S
C2574      C2719   1.490       .  S
C2575      O2576   1.261       .  A
C2575      C2699   1.466       .  S
O2577      C2592   1.256       .  A
O2577     Al2585   1.857       .  S
C2578      O2588   1.262       .  A
C2578      O2579   1.269       .  A
C2578      C3426   1.471       .  S
O2579     Al2581   1.930       .  S
O2580      C2582   1.253       .  A
O2580     Al2581   1.886       .  S
Al2581     O2589   1.879       .  S
Al2581     O2591   1.931       .  S
Al2581     O2590   1.784       .  S
C2582      O2595   1.262       .  A
C2582      C3309   1.479       .  S
O2583      C2593   1.265       .  A
O2583     Al2585   1.917       .  S
O2584      C2597   1.265       .  A
O2584     Al2594   1.914       .  S
Al2585     O2598   1.921       .  S
Al2585     O2595   1.938       .  S
Al2585     O2590   1.788       .  S
O2586      C2593   1.266       .  A
O2586     Al2594   1.920       .  S
O2587      C2596   1.260       .  A
O2587     Al2594   1.937       .  S
O2588     Al2594   1.873       .  S
O2589      C2596   1.253       .  A
O2590     Al2594   1.787       .  S
O2591      C2592   1.266       .  A
C2592      C3419   1.479       .  S
C2593      C2779   1.485       .  S
C2596      C2686   1.492       .  S
C2597      O2598   1.266       .  A
C2597      C2679   1.468       .  S
O2599      C2614   1.270       .  A
O2599     Al2607   1.918       .  S
C2600      O2610   1.273       .  A
C2600      O2601   1.269       .  A
C2600      C3366   1.470       .  S
O2601     Al2603   1.886       .  S
O2602      C2604   1.256       .  A
O2602     Al2603   1.901       .  S
Al2603     O2611   1.885       .  S
Al2603     O2613   1.899       .  S
Al2603     O2612   1.789       .  S
C2604      O2617   1.259       .  A
C2604      C3236   1.481       .  S
O2605      C2615   1.257       .  A
O2605     Al2607   1.908       .  S
O2606      C2619   1.264       .  A
O2606     Al2616   1.920       .  S
Al2607     O2620   1.877       .  S
Al2607     O2617   1.926       .  S
Al2607     O2612   1.788       .  S
O2608      C2615   1.256       .  A
O2608     Al2616   1.882       .  S
O2609      C2618   1.255       .  A
O2609     Al2616   1.922       .  S
O2610     Al2616   1.927       .  S
O2611      C2618   1.251       .  A
O2612     Al2616   1.791       .  S
O2613      C2614   1.268       .  A
C2614      C3359   1.472       .  S
C2615      C2896   1.488       .  S
C2618      C2689   1.493       .  S
C2619      O2620   1.260       .  A
C2619      C2696   1.477       .  S
O2621      C2636   1.256       .  A
O2621     Al2629   1.860       .  S
C2622      O2632   1.260       .  A
C2622      O2623   1.268       .  A
C2622      C2846   1.472       .  S
O2624      C2626   1.255       .  A
O2624     Al2625   1.885       .  S
Al2625     O2633   1.892       .  S
Al2625     O2635   1.911       .  S
Al2625     O2634   1.787       .  S
C2626      O2639   1.260       .  A
C2626      C2769   1.472       .  S
O2627      C2637   1.259       .  A
O2627     Al2629   1.911       .  S
O2628      C2641   1.264       .  A
O2628     Al2638   1.896       .  S
Al2629     O2642   1.924       .  S
Al2629     O2639   1.922       .  S
Al2629     O2634   1.789       .  S
O2630      C2637   1.260       .  A
O2630     Al2638   1.904       .  S
O2631      C2640   1.257       .  A
O2631     Al2638   1.921       .  S
O2633      C2640   1.254       .  A
O2634     Al2638   1.788       .  S
O2635      C2636   1.262       .  A
C2636      C2839   1.474       .  S
C2640      C2666   1.489       .  S
C2641      O2642   1.269       .  A
C2641      C2709   1.462       .  S
O2643      C2658   1.268       .  A
C2644      O2654   1.278       .  A
C2644      O2645   1.263       .  A
C2644      C2809   1.479       .  S
O2645     Al2647   1.854       .  S
O2646      C2648   1.257       .  A
O2646     Al2647   1.895       .  S
Al2647     O2655   1.876       .  S
Al2647     O2657   1.894       .  S
Al2647     O2656   1.785       .  S
C2648      O2661   1.261       .  A
C2648      C2739   1.475       .  S
O2649      C2659   1.254       .  A
O2649     Al2651   1.895       .  S
O2650      C2663   1.271       .  A
O2650     Al2660   1.945       .  S
Al2651     O2664   1.871       .  S
Al2651     O2661   1.926       .  S
Al2651     O2656   1.785       .  S
O2652      C2659   1.256       .  A
O2652     Al2660   1.894       .  S
O2653      C2662   1.255       .  A
O2653     Al2660   1.922       .  S
O2654     Al2660   1.952       .  S
O2655      C2662   1.248       .  A
O2656     Al2660   1.790       .  S
C2658      C2799   1.477       .  S
C2659      C3399   1.490       .  S
C2662      C2669   1.486       .  S
C2663      O2664   1.261       .  A
C2665      C2666   1.404       .  A
C2665      C2670   1.394       .  A
C2665      H2672   1.083       .  S
C2666      C2667   1.413       .  A
C2667      C2668   1.407       .  A
C2667      F2674   1.357       .  S
C2668      C2669   1.404       .  A
C2668      H2673   1.083       .  S
C2669      C2670   1.410       .  A
C2670      F2671   1.358       .  S
C2675      C2676   1.406       .  A
C2675      C2680   1.405       .  A
C2676      C2677   1.405       .  A
C2677      C2678   1.395       .  A
C2677      F2684   1.357       .  S
C2678      C2679   1.400       .  A
C2678      H2683   1.084       .  S
C2679      C2680   1.405       .  A
C2680      F2681   1.357       .  S
C2685      C2686   1.404       .  A
C2685      C2690   1.392   1_545  A
C2685      H2692   1.083       .  S
C2686      C2687   1.412       .  A
C2687      C2688   1.411   1_545  A
C2687      F2694   1.357       .  S
C2688      C2689   1.409       .  A
C2688      H2693   1.083       .  S
C2689      C2690   1.411       .  A
C2690      F2691   1.358       .  S
C2695      C2696   1.402       .  A
C2695      C2700   1.389       .  A
C2695      H2702   1.082       .  S
C2696      C2697   1.409       .  A
C2697      C2698   1.406       .  A
C2697      F2704   1.357       .  S
C2698      C2699   1.404       .  A
C2698      H2703   1.083       .  S
C2699      C2700   1.403       .  A
C2700      F2701   1.359       .  S
C2705      C2706   1.403       .  A
C2705      C2710   1.397       .  A
C2705      H2712   1.083       .  S
C2706      C2707   1.404   1_565  A
C2707      C2708   1.398       .  A
C2707      F2714   1.358       .  S
C2708      C2709   1.402       .  A
C2708      H2713   1.084       .  S
C2709      C2710   1.401   1_545  A
C2710      F2711   1.358       .  S
C2715      C2716   1.405       .  A
C2715      C2720   1.393       .  A
C2715      H2722   1.083       .  S
C2716      C2717   1.407       .  A
C2717      C2718   1.408       .  A
C2717      F2724   1.357       .  S
C2718      C2719   1.411       .  A
C2718      H2723   1.083       .  S
C2719      C2720   1.409       .  A
C2720      F2721   1.358       .  S
C2725      C2726   1.407       .  A
C2725      C2730   1.408   1_655  A
C2725      H2732   1.083       .  S
C2726      C2727   1.404       .  A
C2727      C2728   1.389   1_655  A
C2727      F2734   1.358       .  S
C2728      C2729   1.406       .  A
C2728      H2733   1.083       .  S
C2729      C2730   1.410       .  A
C2730      F2731   1.357       .  S
C2735      C2736   1.403       .  A
C2735      C2740   1.389       .  A
C2735      H2742   1.083       .  S
C2736      C2737   1.414       .  A
C2737      C2738   1.406       .  A
C2737      F2744   1.357       .  S
C2738      C2739   1.403       .  A
C2738      H2743   1.083       .  S
C2739      C2740   1.406       .  A
C2740      F2741   1.358       .  S
C2745      C2746   1.406       .  A
C2745      C2750   1.398       .  A
C2745      H2752   1.080       .  S
C2746      C2747   1.406       .  A
C2747      C2748   1.402       .  A
C2747      F2754   1.358       .  S
C2748      C2749   1.405       .  A
C2748      H2753   1.083       .  S
C2749      C2750   1.404       .  A
C2755      C2756   1.402       .  A
C2755      C2760   1.384       .  A
C2755      H2762   1.084       .  S
C2756      C2757   1.409       .  A
C2757      C2758   1.412       .  A
C2757      F2764   1.357       .  S
C2758      C2759   1.411       .  A
C2758      H2763   1.083       .  S
C2759      C2760   1.410       .  A
C2760      F2761   1.358       .  S
C2765      C2770   1.403       .  A
C2765      H2772   1.083       .  S
C2766      C2767   1.410   1_454  A
C2767      C2768   1.397       .  A
C2767      F2774   1.357   1_655  S
C2768      C2769   1.400       .  A
C2768      H2773   1.084       .  S
C2770      F2771   1.358       .  S
C2775      C2776   1.406       .  A
C2775      C2780   1.411       .  A
C2775      H2782   1.083       .  S
C2776      C2777   1.408       .  A
C2777      C2778   1.394       .  A
C2777      F2784   1.358       .  S
C2778      C2779   1.402       .  A
C2778      H2783   1.084       .  S
C2779      C2780   1.411       .  A
C2780      F2781   1.357       .  S
C2785      C2786   1.404       .  A
C2785      C2790   1.398       .  A
C2785      H2792   1.083       .  S
C2786      C2787   1.403       .  A
C2787      C2788   1.396       .  A
C2787      F2794   1.358       .  S
C2788      C2789   1.405       .  A
C2788      H2793   1.084       .  S
C2789      C2790   1.404       .  A
C2790      F2791   1.358       .  S
C2795      C2796   1.405       .  A
C2795      C2800   1.404       .  A
C2795      H2802   1.083       .  S
C2796      C2797   1.403       .  A
C2797      C2798   1.390       .  A
C2797      F2804   1.359       .  S
C2798      C2799   1.404       .  A
C2798      H2803   1.084       .  S
C2799      C2800   1.408       .  A
C2800      F2801   1.357       .  S
C2805      C2806   1.396       .  A
C2805      C2810   1.387       .  A
C2805      H2812   1.083       .  S
C2806      C2807   1.403       .  A
C2807      C2808   1.404       .  A
C2807      F2814   1.357       .  S
C2808      C2809   1.408       .  A
C2808      H2813   1.083       .  S
C2809      C2810   1.413       .  A
C2810      F2811   1.359       .  S
C2815      C2816   1.412   1_545  A
C2815      C2820   1.406       .  A
C2815      H2822   1.083       .  S
C2816      C2817   1.409   1_565  A
C2817      C2818   1.399       .  A
C2817      F2824   1.358   1_545  S
C2818      C2819   1.405       .  A
C2818      H2823   1.084       .  S
C2819      C2820   1.404       .  A
C2820      F2821   1.357       .  S
C2825      C2826   1.410       .  A
C2825      C2830   1.412       .  A
C2825      H2832   1.083       .  S
C2826      C2827   1.411       .  A
C2827      C2828   1.391       .  A
C2827      F2834   1.358       .  S
C2828      C2829   1.400       .  A
C2828      H2833   1.084       .  S
C2829      C2830   1.409       .  A
C2830      F2831   1.357       .  S
C2835      C2836   1.404       .  A
C2835      C2840   1.400       .  A
C2835      H2842   1.083       .  S
C2836      C2837   1.404       .  A
C2837      C2838   1.386       .  A
C2837      F2844   1.358       .  S
C2838      C2839   1.405       .  A
C2838      H2843   1.083       .  S
C2839      C2840   1.409       .  A
C2840      F2841   1.357       .  S
C2845      C2846   1.405       .  A
C2845      C2850   1.402       .  A
C2845      H2852   1.083       .  S
C2846      C2847   1.407       .  A
C2847      C2848   1.390       .  A
C2847      F2854   1.358       .  S
C2848      C2849   1.399       .  A
C2848      H2853   1.084       .  S
C2849      C2850   1.405       .  A
C2850      F2851   1.357       .  S
C2855      C2856   1.400       .  A
C2855      C2860   1.393       .  A
C2855      H2862   1.084       .  S
C2856      C2857   1.403   1_655  A
C2857      C2858   1.394       .  A
C2857      F2864   1.358       .  S
C2858      C2859   1.404       .  A
C2858      H2863   1.084       .  S
C2859      C2860   1.403   1_455  A
C2860      F2861   1.358       .  S
C2865      C2870   1.408   1_554  A
C2865      H2872   1.083   1_554  S
C2866      C2867   1.406       .  A
C2867      C2868   1.394       .  A
C2867      F2874   1.358       .  S
C2868      C2869   1.401   1_565  A
C2868      H2873   1.084   1_565  S
C2870      F2871   1.357   1_565  S
C2875      C2876   1.403       .  A
C2875      C2880   1.402       .  A
C2875      H2882   1.083       .  S
C2876      C2877   1.401       .  A
C2877      C2878   1.386       .  A
C2877      F2884   1.356       .  S
C2878      C2879   1.403       .  A
C2878      H2883   1.084       .  S
C2879      C2880   1.409       .  A
C2880      F2881   1.357       .  S
C2885      C2886   1.407       .  A
C2885      C2890   1.401       .  A
C2885      H2892   1.083       .  S
C2886      C2887   1.407       .  A
C2887      C2888   1.386       .  A
C2887      F2894   1.359       .  S
C2888      C2889   1.400       .  A
C2888      H2893   1.084       .  S
C2889      C2890   1.403       .  A
C2890      F2891   1.357       .  S
C2895      C2896   1.404       .  A
C2895      C2900   1.391       .  A
C2895      H2902   1.083       .  S
C2896      C2897   1.413       .  A
C2897      C2898   1.408       .  A
C2897      F2904   1.357       .  S
C2898      C2899   1.405       .  A
C2898      H2903   1.083       .  S
C2899      C2900   1.408       .  A
C2900      F2901   1.358       .  S
C2905      C2906   1.406       .  A
C2905      C2910   1.409       .  A
C2905      H2912   1.083       .  S
C2906      C2907   1.404       .  A
C2907      C2908   1.391       .  A
C2907      F2914   1.358       .  S
C2908      C2909   1.405       .  A
C2908      H2913   1.083       .  S
C2909      C2910   1.410       .  A
C2910      F2911   1.357       .  S
C2915      C2916   1.403       .  A
C2915      C2920   1.388       .  A
C2915      H2922   1.083       .  S
C2916      C2917   1.411       .  A
C2917      C2918   1.401       .  A
C2917      F2924   1.357       .  S
C2918      C2919   1.402       .  A
C2918      H2923   1.083       .  S
C2919      C2920   1.406       .  A
C2920      F2921   1.358       .  S
C2925      C2926   1.400       .  A
C2925      C2930   1.398       .  A
C2925      H2932   1.084       .  S
C2926      C2927   1.398       .  A
C2927      C2928   1.392       .  A
C2927      F2934   1.356       .  S
C2928      C2929   1.407       .  A
C2928      H2933   1.083       .  S
C2929      C2930   1.411       .  A
C2930      F2931   1.357       .  S
C2935      C2936   1.400       .  A
C2935      C2940   1.395       .  A
C2935      H2942   1.084       .  S
C2936      C2937   1.404       .  A
C2937      C2938   1.399       .  A
C2937      F2944   1.356       .  S
C2938      C2939   1.403       .  A
C2939      C2940   1.407       .  A
C2940      F2941   1.358       .  S
C2945      C2946   1.411       .  A
C2945      C2950   1.401       .  A
C2945      H2952   1.083       .  S
C2946      C2947   1.409       .  A
C2947      C2948   1.402       .  A
C2947      F2954   1.357       .  S
C2948      C2949   1.403       .  A
C2948      H2953   1.084       .  S
C2949      C2950   1.400       .  A
C2950      F2951   1.358       .  S
C2955      C2956   1.411       .  A
C2955      C2960   1.412       .  A
C2955      H2962   1.083       .  S
C2956      C2957   1.411       .  A
C2957      C2958   1.390       .  A
C2957      F2964   1.358       .  S
C2958      C2959   1.401       .  A
C2958      H2963   1.084       .  S
C2959      C2960   1.408       .  A
C2960      F2961   1.357       .  S
C2965      C2966   1.405       .  A
C2965      C2970   1.398       .  A
C2965      H2972   1.084       .  S
C2966      C2967   1.405       .  A
C2967      C2968   1.398       .  A
C2967      F2974   1.358       .  S
C2968      C2969   1.404       .  A
C2968      H2973   1.084       .  S
C2969      C2970   1.405       .  A
C2970      F2971   1.358       .  S
C2975      C2976   1.401       .  A
C2975      C2980   1.396       .  A
C2975      H2982   1.084       .  S
C2976      C2977   1.407       .  A
C2977      C2978   1.395       .  A
C2977      F2984   1.358       .  S
C2978      C2979   1.400       .  A
C2978      H2983   1.084       .  S
C2979      C2980   1.405       .  A
C2980      F2981   1.357       .  S
C2985      C2986   1.410       .  A
C2985      C2990   1.414       .  A
C2985      H2992   1.083       .  S
C2986      C2987   1.403       .  A
C2987      C2988   1.390       .  A
C2987      F2994   1.358       .  S
C2988      C2989   1.405       .  A
C2988      H2993   1.084       .  S
C2989      C2990   1.411       .  A
C2990      F2991   1.357       .  S
C2995      C2996   1.406       .  A
C2995      C3000   1.396       .  A
C2995      H3002   1.083       .  S
C2996      C2997   1.414       .  A
C2997      C2998   1.408       .  A
C2997      F3004   1.357       .  S
C2998      C2999   1.403       .  A
C2998      H3003   1.083       .  S
C2999      C3000   1.408       .  A
C3000      F3001   1.358       .  S
C3005      C3006   1.407       .  A
C3005      C3010   1.396       .  A
C3005      H3012   1.083       .  S
C3007      F3014   1.357       .  S
C3008      C3009   1.402       .  A
C3008      H3013   1.083   1_556  S
C3009      C3010   1.404       .  A
C3010      F3011   1.358       .  S
C3015      C3016   1.405       .  A
C3015      C3020   1.392       .  A
C3015      H3022   1.084       .  S
C3016      C3017   1.408       .  A
C3017      C3018   1.399       .  A
C3017      F3024   1.357       .  S
C3018      C3019   1.402       .  A
C3018      H3023   1.083       .  S
C3019      C3020   1.402       .  A
C3020      F3021   1.358       .  S
C3025      C3026   1.407       .  A
C3025      C3030   1.402       .  A
C3025      H3032   1.083       .  S
C3026      C3027   1.407       .  A
C3027      C3028   1.387       .  A
C3027      F3034   1.358       .  S
C3028      C3029   1.404       .  A
C3028      H3033   1.084       .  S
C3029      C3030   1.406       .  A
C3030      F3031   1.357       .  S
C3035      C3036   1.405       .  A
C3035      C3040   1.405       .  A
C3035      H3042   1.083       .  S
C3036      C3037   1.403       .  A
C3037      C3038   1.398       .  A
C3037      F3044   1.358       .  S
C3038      C3039   1.406       .  A
C3038      H3043   1.084       .  S
C3039      C3040   1.408       .  A
C3040      F3041   1.357       .  S
C3045      C3046   1.406       .  A
C3045      C3050   1.407       .  A
C3045      H3052   1.083       .  S
C3046      C3047   1.407       .  A
C3047      C3048   1.393       .  A
C3047      F3054   1.358       .  S
C3048      C3049   1.404       .  A
C3048      H3053   1.083       .  S
C3049      C3050   1.410       .  A
C3050      F3051   1.357       .  S
C3055      C3056   1.403       .  A
C3055      C3060   1.405       .  A
C3055      H3062   1.083       .  S
C3056      C3057   1.406       .  A
C3057      C3058   1.392       .  A
C3057      F3064   1.358       .  S
C3058      C3059   1.400       .  A
C3058      H3063   1.084       .  S
C3059      C3060   1.409       .  A
C3060      F3061   1.357       .  S
C3065      C3066   1.400       .  A
C3065      C3070   1.400       .  A
C3065      H3072   1.084       .  S
C3066      C3067   1.401       .  A
C3067      C3068   1.393       .  A
C3067      F3074   1.358       .  S
C3068      C3069   1.406       .  A
C3068      H3073   1.083       .  S
C3069      C3070   1.411       .  A
C3070      F3071   1.357       .  S
C3075      C3076   1.404       .  A
C3075      C3080   1.388       .  A
C3075      H3082   1.083       .  S
C3076      C3077   1.408       .  A
C3077      C3078   1.407       .  A
C3077      F3084   1.357       .  S
C3078      C3079   1.409       .  A
C3078      H3083   1.083       .  S
C3079      C3080   1.408       .  A
C3080      F3081   1.358       .  S
C3085      C3086   1.412       .  A
C3085      C3090   1.411       .  A
C3085      H3092   1.083       .  S
C3086      C3087   1.411       .  A
C3087      C3088   1.395       .  A
C3087      F3094   1.358       .  S
C3088      C3089   1.403       .  A
C3088      H3093   1.084       .  S
C3089      C3090   1.406       .  A
C3090      F3091   1.357       .  S
C3095      C3096   1.409       .  A
C3095      H3102   1.083       .  S
C3096      C3097   1.411       .  A
C3097      F3104   1.358       .  S
C3098      C3099   1.395       .  A
C3098      H3103   1.082       .  S
C3099      C3100   1.398       .  A
C3100      F3101   1.357       .  S
C3105      C3106   1.404       .  A
C3105      C3110   1.404       .  A
C3105      H3112   1.083       .  S
C3106      C3107   1.401       .  A
C3107      C3108   1.384       .  A
C3107      F3114   1.357       .  S
C3108      C3109   1.404       .  A
C3108      H3113   1.084       .  S
C3109      C3110   1.409       .  A
C3110      F3111   1.357       .  S
C3115      C3116   1.403       .  A
C3115      C3120   1.394       .  A
C3115      H3122   1.084       .  S
C3116      C3117   1.404       .  A
C3117      C3118   1.408       .  A
C3117      F3124   1.357       .  S
C3118      C3119   1.413       .  A
C3118      H3123   1.083       .  S
C3119      C3120   1.408       .  A
C3120      F3121   1.358       .  S
C3125      C3126   1.399       .  A
C3125      C3130   1.393       .  A
C3126      C3127   1.405       .  A
C3127      C3128   1.404       .  A
C3127      F3134   1.357       .  S
C3128      C3129   1.405       .  A
C3128      H3133   1.083       .  S
C3129      C3130   1.405       .  A
C3130      F3131   1.357       .  S
C3135      C3136   1.406       .  A
C3135      C3140   1.403       .  A
C3135      H3142   1.083       .  S
C3136      C3137   1.405       .  A
C3137      C3138   1.384       .  A
C3137      F3144   1.358       .  S
C3138      C3139   1.401       .  A
C3138      H3143   1.084       .  S
C3139      C3140   1.405       .  A
C3140      F3141   1.357       .  S
C3145      C3146   1.411       .  A
C3145      H3152   1.083       .  S
C3146      C3147   1.408       .  A
C3147      F3154   1.358       .  S
C3148      C3149   1.402       .  A
C3148      H3153   1.084       .  S
C3149      C3150   1.406       .  A
C3150      F3151   1.357       .  S
C3155      C3156   1.407       .  A
C3155      C3160   1.389   1_655  A
C3155      H3162   1.083       .  S
C3156      C3157   1.409       .  A
C3157      C3158   1.409   1_655  A
C3157      F3164   1.357       .  S
C3158      C3159   1.408       .  A
C3158      H3163   1.083       .  S
C3159      C3160   1.404       .  A
C3160      F3161   1.358       .  S
C3165      C3166   1.405       .  A
C3165      C3170   1.399       .  A
C3165      H3172   1.083       .  S
C3166      C3167   1.402       .  A
C3167      C3168   1.403       .  A
C3167      F3174   1.357       .  S
C3168      C3169   1.411       .  A
C3168      H3173   1.083       .  S
C3169      C3170   1.408       .  A
C3170      F3171   1.358       .  S
C3175      C3176   1.403       .  A
C3175      C3180   1.403       .  A
C3175      H3182   1.087       .  S
C3176      C3177   1.403   1_655  A
C3177      C3178   1.392       .  A
C3177      F3184   1.358       .  S
C3178      C3179   1.400       .  A
C3178      H3183   1.089       .  S
C3179      C3180   1.406   1_455  A
C3180      F3181   1.357       .  S
C3185      C3186   1.401       .  A
C3185      C3190   1.393       .  A
C3185      H3192   1.084       .  S
C3186      C3187   1.410       .  A
C3187      C3188   1.408       .  A
C3187      F3194   1.357       .  S
C3188      C3189   1.406       .  A
C3188      H3193   1.083       .  S
C3189      C3190   1.408       .  A
C3190      F3191   1.358       .  S
C3195      C3196   1.405       .  A
C3195      C3200   1.395       .  A
C3195      H3202   1.084       .  S
C3196      C3197   1.406       .  A
C3197      C3198   1.409       .  A
C3197      F3204   1.357       .  S
C3198      C3199   1.412       .  A
C3198      H3203   1.083       .  S
C3199      C3200   1.407       .  A
C3200      F3201   1.358       .  S
C3205      C3206   1.405       .  A
C3205      C3210   1.397       .  A
C3205      H3212   1.083       .  S
C3206      C3207   1.416       .  A
C3207      C3208   1.409       .  A
C3207      F3214   1.357       .  S
C3208      C3209   1.403       .  A
C3208      H3213   1.083       .  S
C3209      C3210   1.407       .  A
C3210      F3211   1.358       .  S
C3215      C3216   1.405       .  A
C3215      C3220   1.399       .  A
C3215      H3222   1.083       .  S
C3216      C3217   1.404       .  A
C3217      C3218   1.400       .  A
C3217      F3224   1.358       .  S
C3218      C3219   1.405       .  A
C3218      H3223   1.083       .  S
C3219      C3220   1.404       .  A
C3220      F3221   1.358       .  S
C3225      C3226   1.403       .  A
C3225      C3230   1.405       .  A
C3225      H3232   1.083       .  S
C3226      C3227   1.406       .  A
C3227      C3228   1.394       .  A
C3227      F3234   1.358       .  S
C3228      C3229   1.405       .  A
C3228      H3233   1.083       .  S
C3229      C3230   1.414       .  A
C3230      F3231   1.357       .  S
C3235      C3236   1.404       .  A
C3235      C3240   1.394       .  A
C3235      H3242   1.084       .  S
C3236      C3237   1.404       .  A
C3237      C3238   1.407       .  A
C3237      F3244   1.357       .  S
C3238      C3239   1.411       .  A
C3238      H3243   1.083       .  S
C3239      C3240   1.410       .  A
C3240      F3241   1.358       .  S
C3245      C3246   1.402       .  A
C3245      C3250   1.387       .  A
C3245      H3252   1.084       .  S
C3246      C3247   1.404       .  A
C3247      C3248   1.401       .  A
C3247      F3254   1.357       .  S
C3248      C3249   1.405       .  A
C3248      H3253   1.083       .  S
C3249      C3250   1.404       .  A
C3250      F3251   1.358       .  S
C3255      C3256   1.398       .  A
C3255      C3260   1.385       .  A
C3255      H3262   1.084       .  S
C3256      C3257   1.403       .  A
C3257      C3258   1.401       .  A
C3257      F3264   1.357       .  S
C3258      C3259   1.407       .  A
C3258      H3263   1.083       .  S
C3259      C3260   1.408       .  A
C3260      F3261   1.359       .  S
C3265      C3266   1.408   1_455  A
C3265      C3270   1.408       .  A
C3265      H3272   1.083       .  S
C3267      C3268   1.392       .  A
C3267      F3274   1.358   1_455  S
C3268      H3273   1.084       .  S
C3269      C3270   1.407       .  A
C3270      F3271   1.357       .  S
C3275      C3276   1.406       .  A
C3275      C3280   1.389       .  A
C3275      H3282   1.083       .  S
C3276      C3277   1.410       .  A
C3277      C3278   1.409       .  A
C3277      F3284   1.357       .  S
C3278      C3279   1.407       .  A
C3278      H3283   1.083       .  S
C3279      C3280   1.402       .  A
C3280      F3281   1.358       .  S
C3285      C3286   1.405       .  A
C3285      C3290   1.385       .  A
C3285      H3292   1.088       .  S
C3286      C3287   1.411       .  A
C3287      C3288   1.407       .  A
C3287      F3294   1.357       .  S
C3288      C3289   1.406       .  A
C3288      H3293   1.087       .  S
C3289      C3290   1.404       .  A
C3290      F3291   1.359       .  S
C3295      C3296   1.399       .  A
C3295      C3300   1.396       .  A
C3295      H3302   1.084       .  S
C3296      C3297   1.402       .  A
C3297      C3298   1.401       .  A
C3297      F3304   1.358       .  S
C3298      C3299   1.409       .  A
C3298      H3303   1.083       .  S
C3299      C3300   1.411       .  A
C3300      F3301   1.358       .  S
C3305      C3306   1.409       .  A
C3305      C3310   1.402       .  A
C3305      H3312   1.083       .  S
C3306      C3307   1.409       .  A
C3307      C3308   1.406       .  A
C3307      F3314   1.357       .  S
C3308      C3309   1.406       .  A
C3308      H3313   1.084       .  S
C3309      C3310   1.402       .  A
C3310      F3311   1.357       .  S
C3315      C3316   1.403   1_545  A
C3315      C3320   1.399       .  A
C3315      H3322   1.084       .  S
C3316      C3317   1.406       .  A
C3317      C3318   1.397       .  A
C3317      F3324   1.358       .  S
C3318      C3319   1.402   1_565  A
C3318      H3323   1.084       .  S
C3319      C3320   1.407       .  A
C3320      F3321   1.358       .  S
C3325      C3326   1.407       .  A
C3325      C3330   1.393       .  A
C3325      H3332   1.083       .  S
C3326      C3327   1.413       .  A
C3327      C3328   1.416       .  A
C3327      F3334   1.357       .  S
C3328      C3329   1.410       .  A
C3328      H3333   1.083       .  S
C3329      C3330   1.407       .  A
C3330      F3331   1.358       .  S
C3335      C3336   1.406       .  A
C3335      C3340   1.404       .  A
C3335      H3342   1.084       .  S
C3336      C3337   1.403       .  A
C3337      C3338   1.402       .  A
C3337      F3344   1.358       .  S
C3338      C3339   1.408   1_565  A
C3338      H3343   1.084       .  S
C3339      C3340   1.406   1_545  A
C3340      F3341   1.357   1_565  S
C3345      C3346   1.405       .  A
C3345      C3350   1.393       .  A
C3345      H3352   1.084       .  S
C3346      C3347   1.406       .  A
C3347      C3348   1.408       .  A
C3347      F3354   1.357       .  S
C3348      C3349   1.409       .  A
C3348      H3353   1.083       .  S
C3349      C3350   1.405       .  A
C3350      F3351   1.358       .  S
C3355      C3356   1.404       .  A
C3355      C3360   1.403       .  A
C3355      H3362   1.083       .  S
C3356      C3357   1.404       .  A
C3357      C3358   1.388       .  A
C3357      F3364   1.359       .  S
C3358      C3359   1.403       .  A
C3358      H3363   1.083       .  S
C3359      C3360   1.407       .  A
C3360      F3361   1.357       .  S
C3365      C3370   1.394   1_554  A
C3366      C3367   1.406       .  A
C3367      F3374   1.358       .  S
C3368      C3369   1.401       .  A
C3368      H3373   1.084       .  S
C3369      C3370   1.401       .  A
C3370      F3371   1.358       .  S
C3375      C3376   1.403       .  A
C3375      C3380   1.398       .  A
C3375      H3382   1.084       .  S
C3376      C3377   1.403       .  A
C3377      C3378   1.395       .  A
C3378      C3379   1.405       .  A
C3378      H3383   1.084       .  S
C3379      C3380   1.405       .  A
C3380      F3381   1.358       .  S
C3385      C3386   1.404       .  A
C3385      C3390   1.408       .  A
C3385      H3392   1.083       .  S
C3386      C3387   1.406       .  A
C3387      C3388   1.396       .  A
C3387      F3394   1.358       .  S
C3388      C3389   1.406       .  A
C3388      H3393   1.083       .  S
C3389      C3390   1.415       .  A
C3390      F3391   1.357       .  S
C3395      C3396   1.406       .  A
C3395      C3400   1.395       .  A
C3395      H3402   1.084       .  S
C3396      C3397   1.404       .  A
C3397      C3398   1.406       .  A
C3397      F3404   1.357       .  S
C3398      C3399   1.413       .  A
C3398      H3403   1.083       .  S
C3399      C3400   1.408       .  A
C3400      F3401   1.358       .  S
C3405      C3406   1.405       .  A
C3405      C3410   1.391   1_545  A
C3405      H3412   1.084       .  S
C3406      C3407   1.410       .  A
C3407      C3408   1.410   1_545  A
C3407      F3414   1.357       .  S
C3408      C3409   1.407       .  A
C3408      H3413   1.083       .  S
C3409      C3410   1.403       .  A
C3410      F3411   1.358       .  S
C3415      C3416   1.403       .  A
C3415      H3422   1.083       .  S
C3417      C3418   1.405       .  A
C3418      C3419   1.407       .  A
C3418      H3423   1.083       .  S
C3419      C3420   1.409       .  A
C3420      F3421   1.358       .  S
C3425      C3426   1.406       .  A
C3425      C3430   1.401       .  A
C3425      H3432   1.083       .  S
C3426      C3427   1.406       .  A
C3427      C3428   1.389       .  A
C3427      F3434   1.358       .  S
C3428      C3429   1.401       .  A
C3428      H3433   1.084       .  S
C3429      C3430   1.404       .  A
C3430      F3431   1.357       .  S
C3435      C3436   1.404       .  A
C3435      C3440   1.396       .  A
C3435      H3442   1.084       .  S
C3436      C3437   1.406       .  A
C3437      C3438   1.398       .  A
C3437      F3444   1.358       .  S
C3438      C3439   1.403       .  A
C3438      H3443   1.084       .  S
C3439      C3440   1.404       .  A
C3440      F3441   1.358       .  S
C3445      C3446   1.401       .  A
C3445      C3450   1.397       .  A
C3445      H3452   1.084       .  S
C3446      C3447   1.408       .  A
C3447      C3448   1.406       .  A
C3447      F3454   1.357       .  S
C3448      C3449   1.404       .  A
C3448      H3453   1.083       .  S
C3449      C3450   1.408       .  A
C3450      F3451   1.358       .  S
C3455      C3456   1.401       .  A
C3455      C3460   1.392       .  A
C3455      H3462   1.084       .  S
C3456      C3457   1.409       .  A
C3457      C3458   1.408       .  A
C3457      F3464   1.357       .  S
C3458      C3459   1.405       .  A
C3458      H3463   1.083       .  S
C3459      C3460   1.407       .  A
C3460      F3461   1.358       .  S
C3465      C3466   1.401       .  A
C3465      C3470   1.395       .  A
C3465      H3472   1.084       .  S
C3466      C3467   1.403       .  A
C3467      C3468   1.399       .  A
C3467      F3474   1.357       .  S
C3468      C3469   1.405       .  A
C3468      H3473   1.083       .  S
C3469      C3470   1.409       .  A
C3470      F3471   1.358       .  S
C3475      C3476   1.403       .  A
C3475      C3480   1.385       .  A
C3475      H3482   1.082       .  S
C3476      C3477   1.409       .  A
C3477      C3478   1.406       .  A
C3477      F3484   1.357       .  S
C3478      C3479   1.406       .  A
C3478      H3483   1.083       .  S
C3479      C3480   1.407       .  A
C3480      F3481   1.359       .  S
C3485      C3490   1.406       .  A
C3485      H3492   1.083   1_545  S
C3486      C3487   1.410       .  A
C3487      C3488   1.399       .  A
C3487      F3494   1.358       .  S
C3488      H3493   1.084       .  S
C3489      C3490   1.408       .  A
C3490      F3491   1.357       .  S
C3495      C3496   1.403       .  A
C3495      C3500   1.395       .  A
C3495      H3502   1.084       .  S
C3496      C3497   1.408       .  A
C3497      C3498   1.406       .  A
C3497      F3504   1.357       .  S
C3498      C3499   1.408       .  A
C3498      H3503   1.083       .  S
C3499      C3500   1.410       .  A
C3500      F3501   1.358       .  S
C3505      C3506   1.400       .  A
C3505      C3510   1.388       .  A
C3505      H3512   1.084       .  S
C3507      F3514   1.357       .  S
C3508      C3509   1.405       .  A
C3509      C3510   1.406       .  A
C3510      F3511   1.359       .  S
C3515      C3516   1.407       .  A
C3515      C3520   1.400       .  A
C3515      H3522   1.083       .  S
C3516      C3517   1.410       .  A
C3517      C3518   1.395       .  A
C3517      F3524   1.358       .  S
C3518      C3519   1.400       .  A
C3518      H3523   1.084       .  S
C3519      C3520   1.403       .  A
C3520      F3521   1.358       .  S
C3525      C3526   1.410       .  A
C3525      C3530   1.405       .  A
C3525      H3532   1.083       .  S
C3526      C3527   1.408       .  A
C3527      C3528   1.389       .  A
C3527      F3534   1.358       .  S
C3528      C3529   1.399       .  A
C3528      H3533   1.083       .  S
C3529      C3530   1.403       .  A
C3530      F3531   1.357       .  S
C3535      C3536   1.412       .  A
C3535      C3540   1.407       .  A
C3535      H3542   1.083       .  S
C3536      C3537   1.409       .  A
C3537      C3538   1.394       .  A
C3537      F3544   1.358       .  S
C3538      C3539   1.403       .  A
C3538      H3543   1.084       .  S
C3539      C3540   1.404       .  A
C3540      F3541   1.357       .  S
C3545      C3546   1.403       .  A
C3545      C3550   1.406       .  A
C3545      H3552   1.083       .  S
C3546      C3547   1.409       .  A
C3547      C3548   1.395       .  A
C3547      F3554   1.358       .  S
C3548      C3549   1.405       .  A
C3548      H3553   1.083       .  S
C3549      C3550   1.414       .  A
C3550      F3551   1.357       .  S
C3555      C3556   1.397       .  A
C3555      H3562   1.083       .  S
C3556      C3557   1.402       .  A
C3557      F3564   1.357       .  S
C3558      C3559   1.406       .  A
C3558      H3563   1.083       .  S
C3559      C3560   1.408       .  A
C3560      F3561   1.358       .  S
C3565      C3566   1.404       .  A
C3565      C3570   1.398       .  A
C3565      H3572   1.083       .  S
C3566      C3567   1.406       .  A
C3567      C3568   1.387       .  A
C3567      F3574   1.358       .  S
C3568      C3569   1.400       .  A
C3568      H3573   1.084       .  S
C3569      C3570   1.405       .  A
C3570      F3571   1.357       .  S
C3575      C3576   1.406       .  A
C3575      C3580   1.405       .  A
C3575      H3582   1.083       .  S
C3576      C3577   1.404       .  A
C3577      C3578   1.397       .  A
C3577      F3584   1.358       .  S
C3578      C3579   1.405       .  A
C3578      H3583   1.084       .  S
C3579      C3580   1.407       .  A
C3580      F3581   1.357       .  S
C3585      C3586   1.403       .  A
C3585      C3590   1.395       .  A
C3585      H3592   1.084       .  S
C3586      C3587   1.410       .  A
C3587      C3588   1.404       .  A
C3587      F3594   1.357       .  S
C3588      C3589   1.403       .  A
C3588      H3593   1.083       .  S
C3589      C3590   1.405       .  A
C3590      F3591   1.357       .  S
C3595      C3600   1.405       .  A
C3595      H3602   1.083       .  S
C3596      C3597   1.404       .  A
C3597      F3604   1.358       .  S
C3598      C3599   1.401       .  A
C3598      H3603   1.084       .  S
C3599      C3600   1.404       .  A
C3600      F3601   1.357       .  S
C3605      C3606   1.399       .  A
C3605      C3610   1.394       .  A
C3605      H3612   1.082       .  S
C3606      C3607   1.407       .  A
C3607      C3608   1.407       .  A
C3608      C3609   1.405       .  A
C3608      H3613   1.083       .  S
C3609      C3610   1.405       .  A
C3610      F3611   1.358       .  S
C3615      C3616   1.406       .  A
C3615      C3620   1.392       .  A
C3615      H3622   1.083       .  S
C3616      C3617   1.409       .  A
C3617      C3618   1.406       .  A
C3617      F3624   1.357       .  S
C3618      C3619   1.409       .  A
C3618      H3623   1.083       .  S
C3619      C3620   1.409       .  A
C3620      F3621   1.358       .  S
C3625      C3626   1.404       .  A
C3625      C3630   1.394       .  A
C3625      H3632   1.084       .  S
C3626      C3627   1.408       .  A
C3627      C3628   1.410       .  A
C3627      F3634   1.357       .  S
C3628      C3629   1.409       .  A
C3628      H3633   1.083       .  S
C3629      C3630   1.405       .  A
C3630      F3631   1.358       .  S
C3635      C3636   1.402       .  A
C3635      C3640   1.406       .  A
C3635      H3642   1.083       .  S
C3636      C3637   1.403       .  A
C3637      C3638   1.394       .  A
C3637      F3644   1.359       .  S
C3638      C3639   1.407       .  A
C3638      H3643   1.083       .  S
C3639      C3640   1.414       .  A
C3640      F3641   1.357       .  S
C3645      C3646   1.408       .  A
C3645      C3650   1.400       .  A
C3645      H3652   1.083       .  S
C3646      C3647   1.413       .  A
C3647      C3648   1.393       .  A
C3647      F3654   1.358       .  S
C3648      C3649   1.396       .  A
C3648      H3653   1.084       .  S
C3649      C3650   1.402       .  A
C3650      F3651   1.358       .  S
C3655      C3656   1.406       .  A
C3655      C3660   1.405       .  A
C3655      H3662   1.083       .  S
C3656      C3657   1.407       .  A
C3657      C3658   1.388       .  A
C3657      F3664   1.359       .  S
C3658      C3659   1.404       .  A
C3658      H3663   1.084       .  S
C3659      C3660   1.410       .  A
C3660      F3661   1.357       .  S
C3665      C3666   1.403       .  A
C3665      C3670   1.403       .  A
C3665      H3672   1.084       .  S
C3666      C3667   1.401       .  A
C3667      C3668   1.394       .  A
C3667      F3674   1.358       .  S
C3668      C3669   1.403       .  A
C3668      H3673   1.083       .  S
C3669      C3670   1.407       .  A
C3670      F3671   1.357       .  S
C3675      C3676   1.400       .  A
C3675      C3680   1.393       .  A
C3675      H3682   1.084       .  S
C3676      C3677   1.412       .  A
C3677      C3678   1.412       .  A
C3677      F3684   1.357       .  S
C3678      C3679   1.407       .  A
C3678      H3683   1.083       .  S
C3679      C3680   1.409       .  A
C3680      F3681   1.358       .  S
C3685      C3686   1.402       .  A
C3685      C3690   1.405       .  A
C3685      H3692   1.083       .  S
C3686      C3687   1.405       .  A
C3687      C3688   1.394       .  A
C3687      F3694   1.358       .  S
C3688      C3689   1.405   1_455  A
C3688      H3693   1.083   1_455  S
C3689      C3690   1.414   1_655  A
C3690      F3691   1.357       .  S
C3695      C3696   1.405       .  A
C3695      C3700   1.393       .  A
C3695      H3702   1.083       .  S
C3696      C3697   1.411       .  A
C3697      C3698   1.408       .  A
C3697      F3704   1.357       .  S
C3698      C3699   1.406       .  A
C3698      H3703   1.083       .  S
C3699      C3700   1.407       .  A
C3700      F3701   1.358       .  S
C3705      C3706   1.403       .  A
C3705      C3710   1.409       .  A
C3705      H3712   1.083       .  S
C3706      C3707   1.406       .  A
C3707      C3708   1.397       .  A
C3707      F3714   1.358       .  S
C3708      C3709   1.406       .  A
C3708      H3713   1.083       .  S
C3709      C3710   1.414       .  A
C3710      F3711   1.357       .  S
C3715      C3716   1.406       .  A
C3715      C3720   1.403       .  A
C3715      H3722   1.083       .  S
C3716      C3717   1.407       .  A
C3717      C3718   1.393       .  A
C3717      F3724   1.358       .  S
C3718      C3719   1.400       .  A
C3718      H3723   1.084       .  S
C3719      C3720   1.403       .  A
C3720      F3721   1.356       .  S
C3725      C3726   1.403       .  A
C3725      C3730   1.398       .  A
C3725      H3732   1.084       .  S
C3726      C3727   1.406       .  A
C3727      C3728   1.402       .  A
C3727      F3734   1.358       .  S
C3728      C3729   1.403       .  A
C3728      H3733   1.083       .  S
C3729      C3730   1.405       .  A
C3730      F3731   1.357       .  S
C3735      C3736   1.401       .  A
C3735      C3740   1.396       .  A
C3735      H3742   1.083       .  S
C3736      C3737   1.405       .  A
C3737      C3738   1.400       .  A
C3737      F3744   1.358       .  S
C3738      C3739   1.403       .  A
C3738      H3743   1.084       .  S
C3739      C3740   1.404       .  A
C3740      F3741   1.357       .  S
