geometry optimzed in LAMMPS
_audit_creation_date              2020-12-01 
_audit_creation_method            'lammps2cif' 
_symmetry_space_group_name_H-M    'P1' 
_symmetry_Int_Tables_number       1 
_symmetry_cell_setting            triclinic 
loop_ 
_symmetry_equiv_pos_as_xyz 
  x,y,z 
_cell_length_a                    73.79099084 
_cell_length_b                    73.63594119187084 
_cell_length_c                    73.54552033483012 
_cell_angle_alpha                 89.71007760266744 
_cell_angle_beta                  89.8704513364922 
_cell_angle_gamma                 89.85699738955148 
loop_ 
_atom_site_label 
_atom_site_type_symbol 
_atom_site_fract_x 
_atom_site_fract_y 
_atom_site_fract_z 
_atom_site_charge 
In1        In  0.42952157  0.93226705  0.67615739     1.36900
C2          C  0.46416591  0.92348612  0.67053807     0.76900
O3          O  0.41637725  0.95919746  0.66977852    -0.61500
O4          O  0.44086892  0.95906695  0.68455435    -0.52400
C5          C  0.40740928  0.91897141  0.65039482     0.69600
O6          O  0.42151161  0.92790088  0.64691847    -0.47300
C7          C  0.42170227  0.92458695  0.71084062     0.74300
O8          O  0.45312934  0.91271609  0.67800041    -0.59200
O9          O  0.41473049  0.93771964  0.70232024    -0.49200
O10         O  0.45703182  0.93782042  0.66443880    -0.55600
C11         C  0.42850374  0.96848750  0.67736792     0.84500
O12         O  0.40516272  0.91591007  0.66711758    -0.57500
O13         O  0.43170687  0.91462584  0.70115815    -0.60800
In14       In  0.43089957  0.08347358  0.68261763     1.36900
C15         C  0.42236287  0.09130275  0.71713513     0.76900
O16         O  0.44174141  0.05614590  0.69092026    -0.61500
O17         O  0.42023662  0.05701976  0.67203561    -0.52400
C18         C  0.40702695  0.09580045  0.65793705     0.69600
O19         O  0.40273839  0.09188101  0.67404770    -0.47300
C20         C  0.46526727  0.09331856  0.67627902     0.74300
O21         O  0.41999389  0.07597896  0.71002172    -0.59200
O22         O  0.45799935  0.07962797  0.66916755    -0.49200
O23         O  0.42843256  0.10309760  0.70622340    -0.55600
C24         C  0.43107130  0.04724795  0.68102830     0.84500
O25         O  0.42380819  0.09481848  0.65493254    -0.57500
O26         O  0.45456172  0.10261219  0.68585844    -0.60800
In27       In  0.57629935  0.93356273  0.67897385     1.36900
C28         C  0.58492892  0.92588914  0.71355491     0.76900
O29         O  0.56785133  0.96062698  0.68988401    -0.61500
O30         O  0.58568667  0.96022434  0.66734021    -0.52400
C31         C  0.59914515  0.92083063  0.65330087     0.69600
O32         O  0.58294385  0.92512236  0.65022831    -0.47300
C33         C  0.54184627  0.92468644  0.67257345     0.74300
O34         O  0.57495175  0.91571123  0.70411769    -0.59200
O35         O  0.54861292  0.93982593  0.66844771    -0.49200
O36         O  0.59134958  0.93918059  0.70486097    -0.55600
C37         C  0.57711326  0.96972609  0.67868254     0.84500
O38         O  0.60322768  0.92164507  0.66991451    -0.57500
O39         O  0.55285483  0.91366047  0.67977229    -0.60800
In40       In  0.57754684  0.08472125  0.68101128     1.36900
C41         C  0.54319047  0.09398321  0.67399556     0.76900
O42         O  0.58937803  0.05763623  0.67312938    -0.61500
O43         O  0.56558155  0.05797647  0.68906553    -0.52400
C44         C  0.60191428  0.09772345  0.65712615     0.69600
O45         O  0.58584691  0.09399927  0.65287312    -0.47300
C46         C  0.58565648  0.09401612  0.71493544     0.74300
O47         O  0.55152938  0.08161487  0.66568658    -0.59200
O48         O  0.58783622  0.07818999  0.70884567    -0.49200
O49         O  0.55292392  0.10256031  0.68509175    -0.55600
C50         C  0.57724665  0.04845089  0.68101701     0.84500
O51         O  0.60511111  0.09566700  0.67380557    -0.57500
O52         O  0.57959276  0.10532872  0.70349529    -0.60800
In53       In  0.58006011  0.93981040  0.82617616     1.36900
C54         C  0.58470084  0.92923067  0.79168149     0.76900
O55         O  0.55414850  0.93071251  0.83985229    -0.61500
O56         O  0.55259446  0.95156804  0.82013122    -0.52400
C57         C  0.59361519  0.91531639  0.84982540     0.69600
O58         O  0.58731135  0.91121658  0.83450552    -0.47300
C59         C  0.59235036  0.97390082  0.82964746     0.74300
O60         O  0.59788089  0.93289682  0.80197381    -0.59200
O61         O  0.58117476  0.96682429  0.84052273    -0.49200
O62         O  0.56943179  0.93055693  0.79925132    -0.55600
C63         C  0.54412484  0.94156447  0.83116490     0.84500
O64         O  0.59423388  0.93220072  0.85252456    -0.57500
O65         O  0.59806975  0.96319205  0.81760778    -0.60800
In66       In  0.57754019  0.08537616  0.82577697     1.36900
C67         C  0.59081821  0.05144189  0.82713795     0.76900
O68         O  0.55185331  0.06930513  0.82918433    -0.61500
O69         O  0.54993979  0.09783275  0.82834090    -0.52400
C70         C  0.58843320  0.10866035  0.85147465     0.69600
O71         O  0.57903257  0.09477297  0.85475624    -0.47300
C72         C  0.58476894  0.09689513  0.79215380     0.74300
O73         O  0.59307962  0.06255939  0.83998006    -0.59200
O74         O  0.56939438  0.09848370  0.79947601    -0.49200
O75         O  0.58235091  0.05797130  0.81379303    -0.55600
C76         C  0.54166148  0.08297890  0.82991773     0.84500
O77         O  0.59333856  0.11000076  0.83508111    -0.57500
O78         O  0.59678590  0.09030847  0.80249173    -0.60800
In79       In  0.43011690  0.93411601  0.82346184     1.36900
C80         C  0.41884825  0.96810422  0.82962975     0.76900
O81         O  0.45687654  0.94838963  0.82034018    -0.61500
O82         O  0.45663017  0.92330299  0.83416621    -0.52400
C83         C  0.41586257  0.91002598  0.84693697     0.69600
O84         O  0.41431744  0.92693648  0.84887691    -0.47300
C85         C  0.42407847  0.92480828  0.78893983     0.74300
O86         O  0.42757121  0.95872834  0.84104573    -0.59200
O87         O  0.43957154  0.92493810  0.79608112    -0.49200
O88         O  0.41504679  0.95962511  0.81527476    -0.55600
C89         C  0.46595055  0.93657777  0.82880241     0.84500
O90         O  0.42357654  0.90552027  0.83236006    -0.57500
O91         O  0.41138038  0.92906791  0.79967900    -0.60800
In92       In  0.42760927  0.08073640  0.83016885     1.36900
C93         C  0.42084557  0.08948948  0.79537500     0.76900
O94         O  0.45347972  0.09311572  0.84008740    -0.61500
O95         O  0.45505149  0.07033764  0.82257420    -0.52400
C96         C  0.41425156  0.10291713  0.85595609     0.69600
O97         O  0.41457463  0.10698640  0.83929320    -0.47300
C98         C  0.41868148  0.04586739  0.83524719     0.74300
O99         O  0.40932672  0.08197589  0.80561479    -0.59200
O100        O  0.43311278  0.05276894  0.84107316    -0.49200
O101        O  0.43527486  0.09377339  0.80337558    -0.55600
C102        C  0.46347011  0.08207645  0.83164864     0.84500
O103        O  0.41946779  0.08694211  0.85915352    -0.57500
O104        O  0.40823303  0.05706147  0.82750487    -0.60800
In105      In  0.42821364  0.83352823  0.92901812     1.36900
C106        C  0.42133723  0.79921138  0.91995976     0.76900
O107        O  0.45546264  0.82677357  0.94032330    -0.61500
O108        O  0.45443564  0.84414712  0.91737111    -0.52400
C109        C  0.41487503  0.85744220  0.90474345     0.69600
O110        O  0.41888973  0.84129688  0.90081729    -0.47300
C111        C  0.41948243  0.83930071  0.96392534     0.74300
O112        O  0.40884839  0.81018616  0.92430919    -0.59200
O113        O  0.42999056  0.84936519  0.95491696    -0.49200
O114        O  0.43697487  0.80601526  0.92004091    -0.55600
C115        C  0.46416726  0.83632254  0.92910159     0.84500
O116        O  0.41627127  0.86080073  0.92144365    -0.57500
O117        O  0.41206333  0.82715080  0.95451017    -0.60800
In118      In  0.43638964  0.82925090  0.07623900     1.36900
C119        C  0.42725622  0.83569159  0.04165545     0.76900
O120        O  0.46395088  0.82090463  0.06693833    -0.61500
O121        O  0.46214902  0.84151020  0.08689535    -0.52400
C122        C  0.42271636  0.85522158  0.09764776     0.69600
O123        O  0.42618022  0.85751630  0.08104518    -0.47300
C124        C  0.42841221  0.79493718  0.08574260     0.74300
O125        O  0.41612305  0.82944926  0.05313683    -0.59200
O126        O  0.44237191  0.80304962  0.09113639    -0.49200
O127        O  0.44288109  0.83835098  0.04790492    -0.55600
C128        C  0.47227479  0.83203710  0.07686128     0.84500
O129        O  0.42516415  0.83915520  0.10308919    -0.57500
O130        O  0.41820445  0.80467402  0.07598757    -0.60800
In131      In  0.57858355  0.83608653  0.92956676     1.36900
C132        C  0.58834048  0.84221017  0.96414737     0.76900
O133        O  0.55233889  0.84533189  0.91707493    -0.61500
O134        O  0.55118501  0.82854157  0.94046695    -0.52400
C135        C  0.59208388  0.86135728  0.90661615     0.69600
O136        O  0.58660985  0.86490260  0.92242006    -0.47300
C137        C  0.58584746  0.80130873  0.92143764     0.74300
O138        O  0.59886738  0.83490917  0.95274852    -0.59200
O139        O  0.57237635  0.80980617  0.91521344    -0.49200
O140        O  0.57325415  0.84685047  0.95759126    -0.55600
C141        C  0.54247857  0.83716403  0.92846105     0.84500
O142        O  0.59181125  0.84464266  0.90307838    -0.57500
O143        O  0.59609269  0.81099852  0.93100252    -0.60800
In144      In  0.58664008  0.83341079  0.07754050     1.36900
C145        C  0.59393140  0.79891235  0.08706449     0.76900
O146        O  0.55962304  0.84438161  0.08689930    -0.61500
O147        O  0.56011629  0.82353464  0.06721684    -0.52400
C148        C  0.59940683  0.85812386  0.10119015     0.69600
O149        O  0.59484886  0.84231872  0.10579226    -0.47300
C150        C  0.59428587  0.84000469  0.04238923     0.74300
O151        O  0.57970135  0.80726671  0.09146233    -0.59200
O152        O  0.58110075  0.84690082  0.05081520    -0.49200
O153        O  0.60517249  0.80867835  0.07849928    -0.55600
C154        C  0.55060048  0.83373257  0.07707612     0.84500
O155        O  0.59885725  0.86073409  0.08426397    -0.57500
O156        O  0.60448747  0.83042701  0.05237816    -0.60800
In157      In  0.57565246  0.68842565  0.92747746     1.36900
C158        C  0.54025602  0.68826403  0.92008511     0.76900
O159        O  0.56455155  0.67985232  0.95443627    -0.61500
O160        O  0.59162107  0.68930081  0.95338206    -0.52400
C161        C  0.59758629  0.66197326  0.91494859     0.69600
O162        O  0.58314635  0.65887669  0.92355447    -0.47300
C163        C  0.58378858  0.72305860  0.91952580     0.74300
O164        O  0.55153166  0.67961620  0.91041228    -0.59200
O165        O  0.58797171  0.71527202  0.93420446    -0.49200
O166        O  0.54718221  0.69669249  0.93317494    -0.55600
C167        C  0.57874617  0.68359206  0.96309858     0.84500
O168        O  0.59994044  0.67856790  0.91136230    -0.57500
O169        O  0.57623121  0.71268880  0.90823234    -0.60800
In170      In  0.58062136  0.68723853  0.07730291     1.36900
C171        C  0.58947987  0.72111839  0.08651832     0.76900
O172        O  0.59154623  0.67691003  0.05078890    -0.61500
O173        O  0.57001773  0.69600750  0.05021794    -0.52400
C174        C  0.60370506  0.66243129  0.09081900     0.69600
O175        O  0.60862261  0.67752410  0.08447372    -0.47300
C176        C  0.54555384  0.68045405  0.08409373     0.74300
O177        O  0.58275376  0.71001759  0.09780998    -0.59200
O178        O  0.55492791  0.67153291  0.07290222    -0.49200
O179        O  0.59255133  0.71450100  0.07106612    -0.55600
C180        C  0.58044794  0.68583456  0.04128497     0.84500
O181        O  0.58675506  0.66053017  0.09146410    -0.57500
O182        O  0.55453070  0.69217555  0.09267909    -0.60800
In183      In  0.43126240  0.68240539  0.07734820     1.36900
C184        C  0.46714162  0.67801410  0.08216231     0.76900
O185        O  0.43039851  0.66642608  0.05129344    -0.61500
O186        O  0.42478187  0.69467694  0.05034913    -0.52400
C187        C  0.40663294  0.65864505  0.09066309     0.69600
O188        O  0.42338198  0.65545793  0.09027105    -0.47300
C189        C  0.42516381  0.71713591  0.08586935     0.74300
O190        O  0.45650032  0.68177327  0.09506538    -0.59200
O191        O  0.42216013  0.71024804  0.07060632    -0.49200
O192        O  0.45939269  0.67662455  0.06703287    -0.55600
C193        C  0.42610439  0.68004693  0.04169562     0.84500
O194        O  0.40273253  0.67448389  0.08558714    -0.57500
O195        O  0.43120580  0.70597500  0.09753374    -0.60800
In196      In  0.42679978  0.68728448  0.92787912     1.36900
C197        C  0.41809247  0.72151288  0.91927091     0.76900
O198        O  0.41134600  0.68841369  0.95425106    -0.61500
O199        O  0.43839420  0.67875225  0.95456884    -0.52400
C200        C  0.40581991  0.66039430  0.91495937     0.69600
O201        O  0.40346629  0.67685649  0.91074291    -0.47300
C202        C  0.46219299  0.68685049  0.92013757     0.74300
O203        O  0.42602321  0.71102859  0.90825801    -0.59200
O204        O  0.45095543  0.67738064  0.91137853    -0.49200
O205        O  0.41367917  0.71407386  0.93407644    -0.55600
C206        C  0.42431645  0.68224927  0.96357756     0.84500
O207        O  0.41941000  0.65774495  0.92492305    -0.57500
O208        O  0.45513832  0.69666061  0.93221620    -0.60800
In209      In  0.92803354  0.43380374  0.82198881     1.36900
C210        C  0.91872394  0.42580696  0.78797209     0.76900
O211        O  0.91525199  0.46027817  0.83045010    -0.61500
O212        O  0.93830639  0.46118285  0.81323906    -0.52400
C213        C  0.90568855  0.42134631  0.84822955     0.69600
O214        O  0.90166904  0.42113513  0.83157080    -0.47300
C215        C  0.96249264  0.42291168  0.82645516     0.74300
O216        O  0.92282173  0.41364260  0.79943964    -0.59200
O217        O  0.95551593  0.43585809  0.83514275    -0.49200
O218        O  0.91848903  0.44165532  0.79427666    -0.55600
C219        C  0.92626691  0.46998811  0.82162355     0.84500
O220        O  0.92143822  0.42710734  0.85119812    -0.57500
O221        O  0.95158002  0.41492310  0.81610907    -0.60800
In222      In  0.07520660  0.42939026  0.81873214     1.36900
C223        C  0.04031048  0.42046749  0.82328343     0.76900
O224        O  0.08168990  0.45560942  0.83277239    -0.61500
O225        O  0.06618790  0.45664789  0.80867693    -0.52400
C226        C  0.09944265  0.41622276  0.84229923     0.69600
O227        O  0.08265009  0.41353097  0.84395215    -0.47300
C228        C  0.08651012  0.42086510  0.78548545     0.74300
O229        O  0.05052121  0.41244893  0.81214234    -0.59200
O230        O  0.08717812  0.43671147  0.79180547    -0.49200
O231        O  0.04833652  0.43200791  0.83290942    -0.55600
C232        C  0.07341090  0.46543041  0.82142850     0.84500
O233        O  0.10376644  0.42489804  0.82818568    -0.57500
O234        O  0.08031353  0.40911612  0.79639660    -0.60800
In235      In  0.92697189  0.58457851  0.82143824     1.36900
C236        C  0.96208606  0.59106489  0.82751096     0.76900
O237        O  0.92045088  0.55828440  0.83544481    -0.61500
O238        O  0.93260850  0.55733896  0.80941385    -0.52400
C239        C  0.90269071  0.59770670  0.84534151     0.69600
O240        O  0.91953796  0.59814808  0.84809503    -0.47300
C241        C  0.91834671  0.59322787  0.78721440     0.74300
O242        O  0.95164284  0.60299801  0.82085651    -0.59200
O243        O  0.91107062  0.58046774  0.79600114    -0.49200
O244        O  0.95432681  0.57641107  0.83162201    -0.55600
C245        C  0.92633922  0.54848866  0.82272637     0.84500
O246        O  0.89861055  0.59201676  0.82982760    -0.57500
O247        O  0.92944900  0.60235894  0.79642823    -0.60800
In248      In  0.07507120  0.57989280  0.81853256     1.36900
C249        C  0.08345499  0.58825428  0.78439399     0.76900
O250        O  0.06937680  0.55296215  0.80611009    -0.61500
O251        O  0.07605043  0.55357533  0.83407424    -0.52400
C252        C  0.10205109  0.59152426  0.83998002     0.69600
O253        O  0.10414538  0.58041495  0.82726459    -0.47300
C254        C  0.04026125  0.58888853  0.82455879     0.74300
O255        O  0.07634374  0.59968886  0.79501527    -0.59200
O256        O  0.04871927  0.57732749  0.83398027    -0.49200
O257        O  0.08696629  0.57309972  0.79158909    -0.55600
C258        C  0.07195237  0.54401505  0.82050728     0.84500
O259        O  0.08613485  0.59767234  0.84120909    -0.57500
O260        O  0.05001102  0.59651768  0.81274440    -0.60800
In261      In  0.92642318  0.58139512  0.67551612     1.36900
C262        C  0.91864483  0.54644827  0.66879213     0.76900
O263        O  0.95300661  0.58684167  0.66173854    -0.61500
O264        O  0.95322797  0.57294604  0.68698249    -0.52400
C265        C  0.91342575  0.60699298  0.65300636     0.69600
O266        O  0.91055560  0.59028917  0.65079721    -0.47300
C267        C  0.91760669  0.59004624  0.70944246     0.74300
O268        O  0.92994061  0.55552509  0.65966626    -0.59200
O269        O  0.93247778  0.59432302  0.70214674    -0.49200
O270        O  0.91039862  0.55572279  0.68057193    -0.55600
C271        C  0.96234746  0.57914546  0.67387619     0.84500
O272        O  0.92171308  0.61063237  0.66743150    -0.57500
O273        O  0.90674577  0.58206601  0.69892947    -0.60800
In274      In  0.07659322  0.57720608  0.67263863     1.36900
C275        C  0.08236237  0.58698181  0.70688183     0.76900
O276        O  0.05026857  0.59023296  0.66494043    -0.61500
O277        O  0.04955251  0.56492781  0.67868279    -0.52400
C278        C  0.08991230  0.60059704  0.64804600     0.69600
O279        O  0.09081699  0.60323546  0.66490596    -0.47300
C280        C  0.08667191  0.54268416  0.66737549     0.74300
O281        O  0.09487144  0.58086361  0.69684129    -0.59200
O282        O  0.07461646  0.55057683  0.65820285    -0.49200
O283        O  0.06720068  0.58830186  0.69919056    -0.55600
C284        C  0.04063476  0.57760622  0.67133105     0.84500
O285        O  0.08332992  0.58544365  0.64391663    -0.57500
O286        O  0.09462326  0.55292506  0.67848698    -0.60800
In287      In  0.08017324  0.42885916  0.67496217     1.36900
C288        C  0.08730578  0.46430481  0.67038636     0.76900
O289        O  0.05324502  0.43508866  0.68723549    -0.61500
O290        O  0.05349827  0.42315130  0.66109904    -0.52400
C291        C  0.09354710  0.40430503  0.65140555     0.69600
O292        O  0.09499592  0.42119788  0.64893134    -0.47300
C293        C  0.08887159  0.41870238  0.70866084     0.74300
O294        O  0.09721411  0.45397901  0.67983434    -0.59200
O295        O  0.07347644  0.41635149  0.70175495    -0.49200
O296        O  0.07467635  0.45620824  0.66233604    -0.55600
C297        C  0.04409613  0.42909284  0.67415463     0.84500
O298        O  0.08608202  0.40018447  0.66622849    -0.57500
O299        O  0.10033014  0.42581800  0.69800419    -0.60800
In300      In  0.92995221  0.43260139  0.67591445     1.36900
C301        C  0.92185854  0.42367538  0.71027545     0.76900
O302        O  0.95601016  0.42507669  0.66182745    -0.61500
O303        O  0.95733542  0.44032888  0.68617728    -0.52400
C304        C  0.91615465  0.40822388  0.65277139     0.69600
O305        O  0.92423921  0.40389653  0.66718607    -0.47300
C306        C  0.92254276  0.46781574  0.66920602     0.74300
O307        O  0.93692675  0.42027687  0.70298828    -0.59200
O308        O  0.91344718  0.45830809  0.68024073    -0.49200
O309        O  0.91049403  0.43092356  0.69963551    -0.55600
C310        C  0.96589606  0.43267630  0.67347958     0.84500
O311        O  0.91383883  0.42508679  0.65089606    -0.57500
O312        O  0.93471303  0.45896034  0.66115376    -0.60800
In313      In  0.68045973  0.43877911  0.93147208     1.36900
C314        C  0.67945380  0.47323674  0.92010918     0.76900
O315        O  0.67140675  0.45163593  0.95777686    -0.61500
O316        O  0.68060512  0.42450790  0.95844922    -0.52400
C317        C  0.65612302  0.41528243  0.91869766     0.69600
O318        O  0.67282994  0.41385469  0.91550886    -0.47300
C319        C  0.71429141  0.42877380  0.92381557     0.74300
O320        O  0.66757802  0.46179910  0.91560011    -0.59200
O321        O  0.70731673  0.42715004  0.93939996    -0.49200
O322        O  0.69190873  0.46688800  0.92996137    -0.55600
C323        C  0.67442117  0.43770577  0.96731239     0.84500
O324        O  0.65175955  0.42957227  0.92695083    -0.57500
O325        O  0.70374965  0.43530023  0.91191199    -0.60800
In326      In  0.67796741  0.43605045  0.08146954     1.36900
C327        C  0.71198816  0.42552592  0.08702260     0.76900
O328        O  0.66725454  0.42470921  0.05534718    -0.61500
O329        O  0.68224631  0.44919414  0.05422799    -0.52400
C330        C  0.65425174  0.41224444  0.09499816     0.69600
O331        O  0.66993489  0.40793445  0.08991177    -0.47300
C332        C  0.67314746  0.47001506  0.09322443     0.74300
O333        O  0.70139341  0.42943142  0.09993016    -0.59200
O334        O  0.66291828  0.46247633  0.08187562    -0.49200
O335        O  0.70495764  0.42678036  0.07147548    -0.55600
C336        C  0.67352155  0.43734731  0.04560788     0.84500
O337        O  0.65123664  0.42908675  0.09450225    -0.57500
O338        O  0.68545312  0.45974928  0.09934111    -0.60800
In339      In  0.67991307  0.58518159  0.92898140     1.36900
C340        C  0.71436376  0.59516331  0.92242507     0.76900
O341        O  0.66682176  0.59265552  0.95560453    -0.61500
O342        O  0.68805610  0.57333784  0.95590617    -0.52400
C343        C  0.65509020  0.60881504  0.91579608     0.69600
O344        O  0.67012575  0.61351371  0.92228541    -0.47300
C345        C  0.67607149  0.55077054  0.91839769     0.74300
O346        O  0.70412837  0.58866417  0.91039822    -0.59200
O347        O  0.66730543  0.55758265  0.93139710    -0.49200
O348        O  0.70651427  0.59756724  0.93747177    -0.55600
C349        C  0.67643330  0.58198462  0.96497779     0.84500
O350        O  0.65315175  0.59183704  0.91499838    -0.57500
O351        O  0.68600158  0.56189443  0.90993745    -0.60800
In352      In  0.68059797  0.58085700  0.07938393     1.36900
C353        C  0.67700059  0.54724089  0.09276605     0.76900
O354        O  0.67711270  0.56607165  0.05286319    -0.61500
O355        O  0.67739537  0.59475470  0.05237843    -0.52400
C356        C  0.65536784  0.60405838  0.09134040     0.69600
O357        O  0.67193034  0.60562184  0.09531539    -0.47300
C358        C  0.71477819  0.59088610  0.08574365     0.74300
O359        O  0.66440355  0.55880559  0.09337630    -0.59200
O360        O  0.70743214  0.59157422  0.07029318    -0.49200
O361        O  0.69155589  0.55312939  0.08605882    -0.55600
C362        C  0.67594214  0.58033665  0.04340830     0.84500
O363        O  0.65179565  0.59007454  0.08230354    -0.57500
O364        O  0.70416155  0.58596125  0.09834186    -0.60800
In365      In  0.82653124  0.58366247  0.92861528     1.36900
C366        C  0.79253321  0.59549759  0.92289258     0.76900
O367        O  0.81289801  0.55644594  0.92694755    -0.61500
O368        O  0.84140476  0.55705786  0.92520468    -0.52400
C369        C  0.85036632  0.59641093  0.90373623     0.69600
O370        O  0.83367876  0.59480269  0.90070416    -0.47300
C371        C  0.83384940  0.58880753  0.96394812     0.74300
O372        O  0.80080773  0.58486054  0.91235588    -0.59200
O373        O  0.83002612  0.57367854  0.95706553    -0.49200
O374        O  0.80222965  0.60115819  0.93579064    -0.55600
C375        C  0.82732607  0.54744091  0.92523331     0.84500
O376        O  0.85455559  0.59273412  0.91990317    -0.57500
O377        O  0.83352086  0.60190765  0.95273123    -0.60800
In378      In  0.82682463  0.57960895  0.07709459     1.36900
C379        C  0.83531592  0.58727240  0.04224287     0.76900
O380        O  0.83702150  0.55278128  0.08794139    -0.61500
O381        O  0.81340954  0.55273810  0.07196307    -0.52400
C382        C  0.85199755  0.59311356  0.09973241     0.69600
O383        O  0.83525442  0.59573890  0.10203634    -0.47300
C384        C  0.79270489  0.59038296  0.08373685     0.74300
O385        O  0.83053248  0.59933052  0.05342395    -0.59200
O386        O  0.80158926  0.59492401  0.06980784    -0.49200
O387        O  0.83646212  0.57165555  0.04925384    -0.55600
C388        C  0.82465710  0.54344927  0.08091544     0.84500
O389        O  0.85564774  0.58456397  0.08542457    -0.57500
O390        O  0.80175200  0.58099323  0.09492067    -0.60800
In391      In  0.82658597  0.43251689  0.92818680     1.36900
C392        C  0.83219565  0.42348139  0.96302545     0.76900
O393        O  0.83683447  0.45899376  0.91641352    -0.61500
O394        O  0.81807363  0.45990313  0.93819132    -0.52400
C395        C  0.85092611  0.41942105  0.90418821     0.69600
O396        O  0.85484546  0.42306686  0.92044236    -0.47300
C397        C  0.79178525  0.42564638  0.92041731     0.74300
O398        O  0.82576548  0.41242756  0.95168579    -0.59200
O399        O  0.80008033  0.43965442  0.91532159    -0.49200
O400        O  0.83704809  0.43838847  0.95610768    -0.55600
C401        C  0.82728187  0.46874492  0.92675675     0.84500
O402        O  0.83431904  0.42120809  0.90077313    -0.57500
O403        O  0.80165725  0.41438075  0.92881068    -0.60800
In404      In  0.82345272  0.42874239  0.07660326     1.36900
C405        C  0.78923695  0.42049937  0.08460784     0.76900
O406        O  0.81330892  0.45606036  0.06788498    -0.61500
O407        O  0.83235852  0.45499130  0.08928947    -0.52400
C408        C  0.84892179  0.41524321  0.09907025     0.69600
O409        O  0.83230113  0.41527282  0.10293183    -0.47300
C410        C  0.83046779  0.42202224  0.04146352     0.74300
O411        O  0.79934082  0.40989303  0.07571185    -0.59200
O412        O  0.83479875  0.43641463  0.04948341    -0.49200
O413        O  0.79714900  0.43436419  0.09051758    -0.55600
C414        C  0.82236573  0.46481469  0.07937495     0.84500
O415        O  0.85219263  0.42085680  0.08320993    -0.57500
O416        O  0.82279401  0.41048828  0.05164410    -0.60800
In417      In  0.18009140  0.57524580  0.92025649     1.36900
C418        C  0.17227339  0.58298992  0.95512755     0.76900
O419        O  0.19072439  0.54770072  0.92721333    -0.61500
O420        O  0.16566609  0.54930835  0.91321982    -0.52400
C421        C  0.15665525  0.58860309  0.89551678     0.69600
O422        O  0.15394718  0.58943335  0.91238838    -0.47300
C423        C  0.21480804  0.58427042  0.91323876     0.74300
O424        O  0.17837784  0.59477744  0.94417932    -0.59200
O425        O  0.20690951  0.57124906  0.90556520    -0.49200
O426        O  0.16983979  0.56768595  0.94801346    -0.55600
C427        C  0.17752257  0.53928156  0.92045785     0.84500
O428        O  0.17195589  0.58216896  0.89148957    -0.57500
O429        O  0.20457091  0.59309409  0.92370603    -0.60800
In430      In  0.17996231  0.57682531  0.06870657     1.36900
C431        C  0.21523122  0.58487008  0.07150564     0.76900
O432        O  0.19157501  0.54967127  0.07598583    -0.61500
O433        O  0.16399427  0.55079085  0.06841979    -0.52400
C434        C  0.15742150  0.58900257  0.09499978     0.69600
O435        O  0.15529730  0.59285513  0.07838477    -0.47300
C436        C  0.17286289  0.58491000  0.03360937     0.74300
O437        O  0.20336198  0.59318408  0.08072224    -0.59200
O438        O  0.16896258  0.57005525  0.04118620    -0.49200
O439        O  0.20892327  0.57300181  0.06104071    -0.55600
C440        C  0.17717258  0.54100930  0.07323742     0.84500
O441        O  0.17164904  0.58006423  0.09806590    -0.57500
O442        O  0.17952461  0.59641086  0.04439807    -0.60800
In443      In  0.32756745  0.57951390  0.92405514     1.36900
C444        C  0.33012514  0.54334689  0.91968697     0.76900
O445        O  0.34507188  0.57967768  0.94912313    -0.61500
O446        O  0.31675758  0.58392176  0.95202619    -0.52400
C447        C  0.35151399  0.60436273  0.91140606     0.69600
O448        O  0.35468908  0.58753818  0.91129901    -0.47300
C449        C  0.29309059  0.58637127  0.91426148     0.74300
O450        O  0.32921308  0.55412377  0.90628200    -0.59200
O451        O  0.30033582  0.59244940  0.92847191    -0.49200
O452        O  0.33018909  0.55110634  0.93486741    -0.55600
C453        C  0.33197058  0.58284773  0.95971831     0.84500
O454        O  0.33567150  0.60813209  0.91643133    -0.57500
O455        O  0.30393634  0.57751691  0.90436354    -0.60800
In456      In  0.32945580  0.57832051  0.07375293     1.36900
C457        C  0.29350587  0.58363536  0.07549504     0.76900
O458        O  0.32909177  0.59484611  0.04791274    -0.61500
O459        O  0.33716275  0.56727487  0.04637350    -0.52400
C460        C  0.35358794  0.60179816  0.08827073     0.69600
O461        O  0.33670753  0.60403589  0.08939333    -0.47300
C462        C  0.33282439  0.54395261  0.08622033     0.74300
O463        O  0.30370564  0.58592111  0.08908561    -0.59200
O464        O  0.32174360  0.55515740  0.09283184    -0.49200
O465        O  0.30187069  0.57879286  0.06135615    -0.55600
C466        C  0.33432105  0.58193635  0.03794632     0.84500
O467        O  0.35791038  0.58720050  0.08063816    -0.57500
O468        O  0.34280030  0.55077413  0.07411411    -0.60800
In469      In  0.17624533  0.42521199  0.92355859     1.36900
C470        C  0.21075252  0.41769200  0.91597099     0.76900
O471        O  0.16507316  0.45109874  0.91160844    -0.61500
O472        O  0.18635824  0.45247525  0.93087200    -0.52400
C473        C  0.15171659  0.41313444  0.89978306     0.69600
O474        O  0.16853561  0.41247781  0.89677915    -0.47300
C475        C  0.16959701  0.41800055  0.95884272     0.74300
O476        O  0.20020276  0.40603239  0.92287216    -0.59200
O477        O  0.16673737  0.43308539  0.95130663    -0.49200
O478        O  0.20326475  0.43252071  0.91198718    -0.55600
C479        C  0.17566865  0.46103702  0.92055793     0.84500
O480        O  0.14774599  0.41861422  0.91547354    -0.57500
O481        O  0.17508025  0.40592367  0.94801102    -0.60800
In482      In  0.17480549  0.42698989  0.07204609     1.36900
C483        C  0.16734845  0.41919616  0.03726365     0.76900
O484        O  0.16533535  0.45344975  0.08360484    -0.61500
O485        O  0.18550977  0.45383398  0.06294032    -0.52400
C486        C  0.14961530  0.41324335  0.09443314     0.69600
O487        O  0.14585897  0.42293735  0.08083212    -0.47300
C488        C  0.20907429  0.42107490  0.08257053     0.74300
O489        O  0.16425773  0.43425190  0.04461481    -0.59200
O490        O  0.20174528  0.41256223  0.06966538    -0.49200
O491        O  0.17385995  0.40744075  0.04803446    -0.55600
C492        C  0.17582798  0.46282034  0.07380753     0.84500
O493        O  0.16619000  0.40931751  0.09575021    -0.57500
O494        O  0.19846949  0.43179402  0.09061780    -0.60800
In495      In  0.32183846  0.42951585  0.93126475     1.36900
C496        C  0.28802565  0.42008099  0.92267329     0.76900
O497        O  0.33127221  0.41736453  0.95776096    -0.61500
O498        O  0.31190752  0.43863150  0.95860217    -0.52400
C499        C  0.34708940  0.40666310  0.91791752     0.69600
O500        O  0.33049644  0.40276274  0.91861773    -0.47300
C501        C  0.32846312  0.46469981  0.92344009     0.74300
O502        O  0.29865593  0.42737492  0.91128921    -0.59200
O503        O  0.33475754  0.45636012  0.93697212    -0.49200
O504        O  0.29497810  0.41738870  0.93804797    -0.55600
C505        C  0.32169508  0.42770337  0.96748935     0.84500
O506        O  0.35046569  0.42255237  0.92306483    -0.57500
O507        O  0.31907980  0.45473594  0.91320482    -0.60800
In508      In  0.32177282  0.43174638  0.08237014     1.36900
C509        C  0.33037696  0.46605447  0.09010490     0.76900
O510        O  0.31122889  0.43986237  0.05485099    -0.61500
O511        O  0.33094699  0.41906845  0.05599202    -0.52400
C512        C  0.34641180  0.40914986  0.09722578     0.69600
O513        O  0.35035786  0.42360730  0.08899210    -0.47300
C514        C  0.28690868  0.42510397  0.08998777     0.74300
O515        O  0.33432460  0.45847425  0.07528987    -0.59200
O516        O  0.29676528  0.41455242  0.08078816    -0.49200
O517        O  0.32262306  0.45578731  0.10151961    -0.55600
C518        C  0.32066440  0.42859170  0.04615371     0.84500
O519        O  0.32959422  0.40682389  0.09919045    -0.57500
O520        O  0.29538085  0.43842762  0.09646168    -0.60800
In521      In  0.58101216  0.19016895  0.92938914     1.36900
C522        C  0.58739738  0.22489745  0.92091893     0.76900
O523        O  0.55437681  0.17901090  0.91978100    -0.61500
O524        O  0.55432816  0.19648730  0.94249067    -0.52400
C525        C  0.59239359  0.16641975  0.90423574     0.69600
O526        O  0.58609131  0.18182529  0.90024440    -0.47300
C527        C  0.59251716  0.18313147  0.96332229     0.74300
O528        O  0.59993730  0.21406973  0.92537060    -0.59200
O529        O  0.57970931  0.17477841  0.95579905    -0.49200
O530        O  0.57192903  0.21779771  0.92025394    -0.55600
C531        C  0.54509419  0.18714777  0.93161575     0.84500
O532        O  0.59448263  0.16393572  0.92106341    -0.57500
O533        O  0.60015738  0.19459979  0.95306639    -0.60800
In534      In  0.58224438  0.19042575  0.07549839     1.36900
C535        C  0.59401585  0.18439604  0.04134406     0.76900
O536        O  0.55497151  0.19500563  0.06277738    -0.61500
O537        O  0.55594052  0.18252544  0.08866418    -0.52400
C538        C  0.59498931  0.16727809  0.10087597     0.69600
O539        O  0.59530942  0.18426202  0.10266948    -0.47300
C540        C  0.58685577  0.22525824  0.08386527     0.74300
O541        O  0.58377765  0.17367518  0.04991134    -0.59200
O542        O  0.57168194  0.21747635  0.08381961    -0.49200
O543        O  0.59919355  0.19761722  0.05077364    -0.55600
C544        C  0.54616172  0.18828439  0.07584751     0.84500
O545        O  0.58992237  0.16228184  0.08535423    -0.57500
O546        O  0.60006391  0.21492606  0.08016920    -0.60800
In547      In  0.57645148  0.33675227  0.92631132     1.36900
C548        C  0.58545428  0.30234606  0.92073653     0.76900
O549        O  0.59034671  0.34041876  0.95315620    -0.61500
O550        O  0.56209710  0.33589523  0.95313473    -0.52400
C551        C  0.60060433  0.36114930  0.91430670     0.69600
O552        O  0.60312469  0.34429531  0.91300292    -0.47300
C553        C  0.54253820  0.34243025  0.91442972     0.74300
O554        O  0.58280822  0.31329631  0.90767198    -0.59200
O555        O  0.55134367  0.35381993  0.92353467    -0.49200
O556        O  0.58340025  0.30909111  0.93631612    -0.55600
C557        C  0.57606771  0.33891892  0.96243764     0.84500
O558        O  0.58525552  0.36534587  0.92041283    -0.57500
O559        O  0.55172838  0.32868967  0.91001706    -0.60800
In560      In  0.57333465  0.33728986  0.07701376     1.36900
C561        C  0.53881960  0.34381057  0.08566350     0.76900
O562        O  0.58255750  0.34965251  0.05059857    -0.61500
O563        O  0.56492649  0.32699375  0.04979046    -0.52400
C564        C  0.59670854  0.36070661  0.09178198     0.69600
O565        O  0.58070804  0.36493803  0.08767482    -0.47300
C566        C  0.58155621  0.30299867  0.08521413     0.74300
O567        O  0.54975852  0.33646639  0.09665958    -0.59200
O568        O  0.58906419  0.31157035  0.07237729    -0.49200
O569        O  0.54584492  0.34840206  0.07073963    -0.55600
C570        C  0.57357779  0.33882231  0.04092981     0.84500
O571        O  0.60031412  0.34421633  0.08919859    -0.57500
O572        O  0.57051347  0.31238397  0.09429336    -0.60800
In573      In  0.43129680  0.33180624  0.92988357     1.36900
C574        C  0.46484951  0.34083064  0.91880021     0.76900
O575        O  0.41835685  0.33892475  0.95670714    -0.61500
O576        O  0.44395224  0.32597039  0.95701445    -0.52400
C577        C  0.40497713  0.35416175  0.91771639     0.69600
O578        O  0.42051344  0.35965623  0.92210274    -0.47300
C579        C  0.42533670  0.29656748  0.92334115     0.74300
O580        O  0.45472425  0.33042539  0.90981449    -0.59200
O581        O  0.42301597  0.30389597  0.93859036    -0.49200
O582        O  0.45738445  0.34716941  0.93280483    -0.55600
C583        C  0.43116571  0.33266016  0.96621086     0.84500
O584        O  0.40354912  0.33716113  0.91812286    -0.57500
O585        O  0.43039295  0.30747679  0.91105971    -0.60800
In586      In  0.42677210  0.33209520  0.08118425     1.36900
C587        C  0.41981527  0.29760138  0.08997907     0.76900
O588        O  0.43917612  0.32419431  0.05446905    -0.61500
O589        O  0.41632652  0.34162218  0.05399344    -0.52400
C590        C  0.40124829  0.35431605  0.09511584     0.69600
O591        O  0.39771250  0.33975081  0.08702533    -0.47300
C592        C  0.46098299  0.34046029  0.08948693     0.74300
O593        O  0.41731156  0.30417899  0.07437505    -0.59200
O594        O  0.45168841  0.34937178  0.07812622    -0.49200
O595        O  0.42539170  0.30889561  0.10153454    -0.55600
C596        C  0.42789653  0.33283631  0.04493327     0.84500
O597        O  0.41799429  0.35723163  0.09669808    -0.57500
O598        O  0.45219784  0.32813195  0.09751992    -0.60800
In599      In  0.43081883  0.18352085  0.93325746     1.36900
C600        C  0.42178525  0.17817481  0.96827367     0.76900
O601        O  0.45737678  0.17309679  0.92195705    -0.61500
O602        O  0.45779896  0.19108979  0.94429313    -0.52400
C603        C  0.41713548  0.15892026  0.90994386     0.69600
O604        O  0.41831513  0.15604093  0.92680691    -0.47300
C605        C  0.42389400  0.21835085  0.92479807     0.74300
O606        O  0.41230696  0.18765868  0.95756725    -0.59200
O607        O  0.43911413  0.21096855  0.92255751    -0.49200
O608        O  0.43507331  0.17056398  0.96063319    -0.55600
C609        C  0.46686959  0.18184831  0.93312991     0.84500
O610        O  0.42218569  0.17459098  0.90532888    -0.57500
O611        O  0.41176197  0.20756285  0.93027184    -0.60800
In612      In  0.43215470  0.18660509  0.08118765     1.36900
C613        C  0.42346790  0.22027463  0.09123972     0.76900
O614        O  0.45923892  0.17924379  0.09296260    -0.61500
O615        O  0.45833367  0.19647993  0.06975440    -0.52400
C616        C  0.42055887  0.16037746  0.10377053     0.69600
O617        O  0.41932221  0.17700762  0.10744359    -0.47300
C618        C  0.42342413  0.17963908  0.04658973     0.74300
O619        O  0.41232804  0.20993182  0.08339112    -0.59200
O620        O  0.43790735  0.17457664  0.05401594    -0.49200
O621        O  0.43861865  0.21305931  0.09431493    -0.55600
C622        C  0.46801901  0.18825697  0.08127056     0.84500
O623        O  0.42674085  0.15737634  0.08814747    -0.57500
O624        O  0.41284219  0.18811121  0.05710041    -0.60800
In625      In  0.58503040  0.94089315  0.17688186     1.36900
C626        C  0.59610938  0.97517465  0.17079751     0.76900
O627        O  0.55874527  0.92718278  0.17042117    -0.61500
O628        O  0.55772983  0.95442849  0.17928635    -0.52400
C629        C  0.59864368  0.91675682  0.15296104     0.69600
O630        O  0.59259823  0.93213950  0.14868381    -0.47300
C631        C  0.59023205  0.93331364  0.21196824     0.74300
O632        O  0.60183473  0.96563408  0.18384509    -0.59200
O633        O  0.57530835  0.93089977  0.20404244    -0.49200
O634        O  0.58574760  0.96665796  0.16027049    -0.55600
C635        C  0.54899757  0.94079990  0.17391290     0.84500
O636        O  0.59926678  0.91423189  0.16990533    -0.57500
O637        O  0.60284383  0.93880704  0.20169764    -0.60800
In638      In  0.58359213  0.08704892  0.18132952     1.36900
C639        C  0.59128557  0.09470377  0.21629387     0.76900
O640        O  0.55663927  0.09692798  0.17109768    -0.61500
O641        O  0.55694165  0.07551404  0.19045514    -0.52400
C642        C  0.59538380  0.11187520  0.15682195     0.69600
O643        O  0.59365675  0.11517595  0.17352055    -0.47300
C644        C  0.59343311  0.05303284  0.17267753     0.74300
O645        O  0.57738034  0.10042122  0.20818383    -0.59200
O646        O  0.57808850  0.05972562  0.16936309    -0.49200
O647        O  0.60176652  0.08558706  0.20623387    -0.55600
C648        C  0.54754581  0.08590715  0.18056920     0.84500
O649        O  0.59230401  0.09555565  0.15295335    -0.57500
O650        O  0.60425707  0.06398845  0.18012835    -0.60800
In651      In  0.57489484  0.93319616  0.32457052     1.36900
C652        C  0.54099452  0.91991523  0.32875039     0.76900
O653        O  0.56019362  0.96000254  0.32613906    -0.61500
O654        O  0.58869132  0.95997141  0.32882352    -0.52400
C655        C  0.59896999  0.91959883  0.34860566     0.69600
O656        O  0.60067899  0.91751921  0.33169692    -0.47300
C657        C  0.58463460  0.92905357  0.28985317     0.74300
O658        O  0.55018842  0.92610563  0.34172417    -0.59200
O659        O  0.58394976  0.94424001  0.29769175    -0.49200
O660        O  0.54952338  0.91978293  0.31391900    -0.55600
C661        C  0.57432022  0.96920610  0.32869252     0.84500
O662        O  0.58447140  0.92741232  0.35298759    -0.57500
O663        O  0.58073785  0.91572544  0.30004858    -0.60800
In664      In  0.57921861  0.08352094  0.32791053     1.36900
C665        C  0.59084439  0.09211319  0.29434222     0.76900
O666        O  0.58326744  0.05668032  0.34200702    -0.61500
O667        O  0.56984503  0.05687454  0.31660279    -0.52400
C668        C  0.60376888  0.09493964  0.35231821     0.69600
O669        O  0.60727782  0.08402115  0.33968095    -0.47300
C670        C  0.54429622  0.09247851  0.33336143     0.74300
O671        O  0.58512337  0.10400116  0.30532040    -0.59200
O672        O  0.55319760  0.08220954  0.34378496    -0.49200
O673        O  0.59137319  0.07632738  0.30096820    -0.55600
C674        C  0.57557258  0.04756233  0.32981692     0.84500
O675        O  0.58774986  0.10095237  0.35197104    -0.57500
O676        O  0.55371083  0.09921406  0.32072518    -0.60800
In677      In  0.43448580  0.93617072  0.17487476     1.36900
C678        C  0.42651938  0.92488210  0.20851881     0.76900
O679        O  0.46162512  0.92300468  0.17083255    -0.61500
O680        O  0.46108316  0.95091473  0.17711064    -0.52400
C681        C  0.42271023  0.91386012  0.14870138     0.69600
O682        O  0.41839250  0.91184656  0.16520419    -0.47300
C683        C  0.42232848  0.97011298  0.17072708     0.74300
O684        O  0.41453884  0.93100881  0.19780601    -0.59200
O685        O  0.42374563  0.96235138  0.18591304    -0.49200
O686        O  0.44212725  0.92381430  0.20157935    -0.55600
C687        C  0.47065862  0.93713928  0.17381916     0.84500
O688        O  0.43193631  0.92787390  0.14570482    -0.57500
O689        O  0.42629472  0.96015308  0.15742165    -0.60800
In690      In  0.43352620  0.08054684  0.18188194     1.36900
C691        C  0.42340243  0.04725872  0.17269067     0.76900
O692        O  0.45958782  0.09259209  0.17183920    -0.61500
O693        O  0.46082783  0.06841495  0.18754716    -0.52400
C694        C  0.42014223  0.10552391  0.15922938     0.69600
O695        O  0.42000732  0.08878894  0.15588173    -0.47300
C696        C  0.42673062  0.08670438  0.21693052     0.74300
O697        O  0.43688152  0.05516553  0.16578490    -0.59200
O698        O  0.44214099  0.08796695  0.20976778    -0.49200
O699        O  0.41468465  0.05672837  0.18400727    -0.55600
C700        C  0.46946123  0.08053311  0.17902372     0.84500
O701        O  0.42604008  0.10935946  0.17478381    -0.57500
O702        O  0.41431681  0.08245081  0.20597897    -0.60800
In703      In  0.42926330  0.92698481  0.32208783     1.36900
C704        C  0.42256765  0.92155058  0.28661212     0.76900
O705        O  0.41678246  0.95291743  0.33232771    -0.61500
O706        O  0.44112013  0.95459584  0.31702536    -0.52400
C707        C  0.40469884  0.91289114  0.34512837     0.69600
O708        O  0.40186105  0.91462598  0.32833840    -0.47300
C709        C  0.46334527  0.91669828  0.32979568     0.74300
O710        O  0.43102823  0.91026205  0.29640765    -0.59200
O711        O  0.45584952  0.93048259  0.33655446    -0.49200
O712        O  0.41704692  0.93528032  0.29516030    -0.55600
C713        C  0.42907118  0.96291344  0.32589540     0.84500
O714        O  0.42062248  0.91677236  0.34970299    -0.57500
O715        O  0.45302669  0.90743024  0.31981156    -0.60800
In716      In  0.43197461  0.07723431  0.32955904     1.36900
C717        C  0.46638805  0.08729171  0.33534608     0.76900
O718        O  0.41704185  0.05117892  0.33499493    -0.61500
O719        O  0.44404855  0.04964849  0.32521982    -0.52400
C720        C  0.40898608  0.09114821  0.35430195     0.69600
O721        O  0.42363215  0.08341524  0.35849404    -0.47300
C722        C  0.42455095  0.08437960  0.29472614     0.74300
O723        O  0.45527190  0.09705874  0.32669383    -0.59200
O724        O  0.42061034  0.06954458  0.30228135    -0.49200
O725        O  0.45962211  0.07286411  0.34160757    -0.55600
C726        C  0.43001658  0.04114137  0.33007134     0.84500
O727        O  0.40659876  0.09255517  0.33742416    -0.57500
O728        O  0.43185320  0.09574475  0.30513931    -0.60800
In729      In  0.17992610  0.92962220  0.57321673     1.36900
C730        C  0.21418664  0.92204504  0.58217806     0.76900
O731        O  0.17330734  0.91676797  0.54617372    -0.61500
O732        O  0.18843624  0.94103418  0.54602072    -0.52400
C733        C  0.15465182  0.90728871  0.58718484     0.69600
O734        O  0.17137762  0.90392587  0.58785556    -0.47300
C735        C  0.17311880  0.96398063  0.58282251     0.74300
O736        O  0.20385418  0.93151712  0.59197549    -0.59200
O737        O  0.18333921  0.95364951  0.59188521    -0.49200
O738        O  0.20650188  0.91541621  0.56843847    -0.55600
C739        C  0.18129396  0.92863027  0.53672139     0.84500
O740        O  0.15105092  0.92256766  0.58041580    -0.57500
O741        O  0.16582674  0.95633172  0.56939885    -0.60800
In742      In  0.18275331  0.07533616  0.57321780     1.36900
C743        C  0.17332484  0.04156972  0.58158497     0.76900
O744        O  0.19130310  0.06460148  0.54603224    -0.61500
O745        O  0.18008425  0.09094249  0.54700653    -0.52400
C746        C  0.15510985  0.09614774  0.58460885     0.69600
O747        O  0.17081312  0.09742300  0.59123786    -0.47300
C748        C  0.21667267  0.08122880  0.58469628     0.74300
O749        O  0.17229903  0.04812019  0.56576711    -0.59200
O750        O  0.20770125  0.09281518  0.57576750    -0.49200
O751        O  0.17844299  0.05266566  0.59356985    -0.55600
C752        C  0.18614306  0.07835643  0.53718488     0.84500
O753        O  0.15364719  0.08377807  0.57301429    -0.57500
O754        O  0.20796187  0.06699528  0.58818529    -0.60800
In755      In  0.32647014  0.92878691  0.57281600     1.36900
C756        C  0.29201512  0.92160839  0.58127075     0.76900
O757        O  0.31973667  0.95639999  0.56163246    -0.61500
O758        O  0.33748998  0.95454105  0.58416572    -0.52400
C759        C  0.35067786  0.91608842  0.59698159     0.69600
O760        O  0.33520422  0.92184996  0.60133030    -0.47300
C761        C  0.33222982  0.91987163  0.53806942     0.74300
O762        O  0.30312935  0.90927330  0.57700809    -0.59200
O763        O  0.32144731  0.91126149  0.54823370    -0.49200
O764        O  0.29888493  0.93721327  0.58200363    -0.55600
C765        C  0.32951525  0.96467821  0.57289002     0.84500
O766        O  0.35321164  0.91537820  0.58003649    -0.57500
O767        O  0.34097063  0.93206523  0.54617341    -0.60800
In768      In  0.32856349  0.07874882  0.57890837     1.36900
C769        C  0.33091325  0.09118389  0.54468867     0.76900
O770        O  0.33060074  0.05132528  0.59214152    -0.61500
O771        O  0.33223665  0.05277881  0.56352391    -0.52400
C772        C  0.35392383  0.09190017  0.60122806     0.69600
O773        O  0.35714328  0.08075873  0.58871229    -0.47300
C774        C  0.29435570  0.08483431  0.58903128     0.74300
O775        O  0.34347026  0.09349786  0.55608398    -0.59200
O776        O  0.30291928  0.07063042  0.59336808    -0.49200
O777        O  0.31738528  0.08290986  0.55101602    -0.55600
C778        C  0.33221095  0.04278558  0.57745128     0.84500
O779        O  0.33761427  0.09707433  0.60192514    -0.57500
O780        O  0.30395697  0.09654276  0.58098465    -0.60800
In781      In  0.32844786  0.93288573  0.42499452     1.36900
C782        C  0.33393700  0.92282955  0.45964675     0.76900
O783        O  0.34457081  0.95858745  0.42146776    -0.61500
O784        O  0.31880070  0.96002302  0.43428192    -0.52400
C785        C  0.34964463  0.91881988  0.39907227     0.69600
O786        O  0.34934882  0.91257181  0.41506239    -0.47300
C787        C  0.29465972  0.92709479  0.41367496     0.74300
O788        O  0.34473942  0.93271288  0.45081703    -0.59200
O789        O  0.30201813  0.94248376  0.41374966    -0.49200
O790        O  0.32085272  0.91714519  0.45028541    -0.55600
C791        C  0.33272803  0.96842151  0.42900954     0.84500
O792        O  0.33899454  0.93192415  0.39646788    -0.57500
O793        O  0.30481847  0.91437568  0.41915453    -0.60800
In794      In  0.32936167  0.08263952  0.43322669     1.36900
C795        C  0.29407031  0.08630033  0.42609644     0.76900
O796        O  0.33704202  0.05676663  0.41908656    -0.61500
O797        O  0.32915844  0.05514309  0.44663840    -0.52400
C798        C  0.35250812  0.09556236  0.40808476     0.69600
O799        O  0.33626716  0.09172268  0.40474158    -0.47300
C800        C  0.33432902  0.09486074  0.46704494     0.74300
O801        O  0.30452742  0.09983261  0.42706905    -0.59200
O802        O  0.34477040  0.08347399  0.45968643    -0.49200
O803        O  0.30177043  0.07122021  0.42852041    -0.55600
C804        C  0.33427715  0.04668798  0.43266809     0.84500
O805        O  0.35633900  0.09458055  0.42475780    -0.57500
O806        O  0.32230549  0.10113345  0.45656392    -0.60800
In807      In  0.18302787  0.93242620  0.42123978     1.36900
C808        C  0.17443952  0.96684820  0.41368960     0.76900
O809        O  0.17265309  0.92107072  0.44797564    -0.61500
O810        O  0.19304398  0.94114220  0.44872647    -0.52400
C811        C  0.15698564  0.91011045  0.40896991     0.69600
O812        O  0.15432797  0.92654379  0.41270453    -0.47300
C813        C  0.21723483  0.92504469  0.41101416     0.74300
O814        O  0.17798011  0.95560072  0.40121938    -0.59200
O815        O  0.20885396  0.91642007  0.42317470    -0.49200
O816        O  0.17545090  0.96034676  0.42950426    -0.55600
C817        C  0.18260151  0.93095309  0.45769349     0.84500
O818        O  0.17340297  0.90546631  0.41013744    -0.57500
O819        O  0.20766027  0.93689033  0.40313176    -0.60800
In820      In  0.18106589  0.07815885  0.42229676     1.36900
C821        C  0.21625487  0.08480707  0.41753635     0.76900
O822        O  0.17521380  0.09012970  0.44967484    -0.61500
O823        O  0.18835321  0.06463036  0.44865169    -0.52400
C824        C  0.15750085  0.10253213  0.40880256     0.69600
O825        O  0.17408164  0.10270434  0.40464219    -0.47300
C826        C  0.17209303  0.04452931  0.41194824     0.74300
O827        O  0.20674622  0.09278745  0.42931356    -0.59200
O828        O  0.16500780  0.05260261  0.42525545    -0.49200
O829        O  0.20729590  0.07470661  0.40708400    -0.55600
C830        C  0.18204421  0.07708437  0.45849737     0.84500
O831        O  0.15309219  0.08946372  0.41889257    -0.57500
O832        O  0.18288581  0.05432010  0.40291947    -0.60800
In833      In  0.93022189  0.58039336  0.17970832     1.36900
C834        C  0.92377295  0.58726393  0.21500361     0.76900
O835        O  0.91728930  0.55405269  0.17126225    -0.61500
O836        O  0.94166968  0.55301402  0.18628507    -0.52400
C837        C  0.90616644  0.59423744  0.15570224     0.69600
O838        O  0.90250291  0.59139585  0.17217598    -0.47300
C839        C  0.96449729  0.58855906  0.17075387     0.74300
O840        O  0.91795547  0.57352186  0.20681557    -0.59200
O841        O  0.95664963  0.57406023  0.16639143    -0.49200
O842        O  0.93238744  0.59805806  0.20482280    -0.55600
C843        C  0.92914371  0.54422324  0.17879692     0.84500
O844        O  0.92254365  0.59126262  0.15189310    -0.57500
O845        O  0.95451254  0.59947112  0.17949133    -0.60800
In846      In  0.07697503  0.58000491  0.17451382     1.36900
C847        C  0.04247406  0.58905831  0.16751982     0.76900
O848        O  0.06837328  0.55282279  0.18526130    -0.61500
O849        O  0.08755628  0.55336315  0.16397279    -0.52400
C850        C  0.10085213  0.59269151  0.14970235     0.69600
O851        O  0.10371662  0.59322257  0.16659077    -0.47300
C852        C  0.08382993  0.58756901  0.20947796     0.74300
O853        O  0.04941902  0.57399672  0.16326396    -0.59200
O854        O  0.09314375  0.57659620  0.20020795    -0.49200
O855        O  0.05367217  0.60012137  0.17417502    -0.55600
C856        C  0.07835666  0.54378218  0.17474147     0.84500
O857        O  0.08511066  0.58749577  0.14579585    -0.57500
O858        O  0.07178777  0.59566384  0.20038300    -0.60800
In859      In  0.93099436  0.57903271  0.32843666     1.36900
C860        C  0.92383766  0.58550100  0.29344741     0.76900
O861        O  0.95764132  0.59096659  0.33750927    -0.61500
O862        O  0.95802168  0.56630281  0.32304461    -0.52400
C863        C  0.91670512  0.60354748  0.35121903     0.69600
O864        O  0.92162915  0.60735104  0.33528403    -0.47300
C865        C  0.92177925  0.54477180  0.33623434     0.74300
O866        O  0.91215880  0.57906280  0.30424308    -0.59200
O867        O  0.93358946  0.55347684  0.34495856    -0.49200
O868        O  0.93865012  0.58952346  0.30086506    -0.55600
C869        C  0.96712857  0.57830729  0.33101736     0.84500
O870        O  0.91786497  0.58688857  0.35497529    -0.57500
O871        O  0.91381343  0.55412727  0.32425033    -0.60800
In872      In  0.08152407  0.57951762  0.32401109     1.36900
C873        C  0.09325217  0.54583172  0.33181744     0.76900
O874        O  0.05425469  0.56946435  0.31562071    -0.61500
O875        O  0.05546711  0.58643600  0.33861889    -0.52400
C876        C  0.09533261  0.60540730  0.34567807     0.69600
O877        O  0.09453411  0.58892972  0.35012003    -0.47300
C878        C  0.08631451  0.58597394  0.28839720     0.74300
O879        O  0.07907470  0.55273319  0.33841156    -0.59200
O880        O  0.07274773  0.59164987  0.29716692    -0.49200
O881        O  0.10191862  0.55652448  0.32158893    -0.55600
C882        C  0.04561432  0.57724244  0.32814774     0.84500
O883        O  0.09025595  0.60838444  0.32959662    -0.57500
O884        O  0.09797017  0.57808600  0.29819521    -0.60800
In885      In  0.92866619  0.42957161  0.17600832     1.36900
C886        C  0.96313359  0.42059730  0.16912848     0.76900
O887        O  0.94041260  0.45651694  0.18318387    -0.61500
O888        O  0.91548275  0.45625856  0.16900581    -0.52400
C889        C  0.90665407  0.41513005  0.15095745     0.69600
O890        O  0.91992680  0.42512343  0.14723928    -0.47300
C891        C  0.92020448  0.42397822  0.21093409     0.74300
O892        O  0.95538226  0.43429171  0.16234884    -0.59200
O893        O  0.91248551  0.43576063  0.20114844    -0.49200
O894        O  0.95274464  0.41070013  0.17850932    -0.55600
C895        C  0.92788828  0.46568556  0.17594593     0.84500
O896        O  0.90526014  0.41139805  0.16764258    -0.57500
O897        O  0.93149558  0.41428307  0.20246636    -0.60800
In898      In  0.07570553  0.42948833  0.17733157     1.36900
C899        C  0.08519173  0.42091638  0.21143841     0.76900
O900        O  0.08201627  0.45560521  0.16262284    -0.61500
O901        O  0.07020840  0.45678331  0.18895673    -0.52400
C902        C  0.09847794  0.41557960  0.15264861     0.69600
O903        O  0.08153678  0.41515006  0.15076545    -0.47300
C904        C  0.04085757  0.42250483  0.17107186     0.74300
O905        O  0.09221662  0.43364221  0.20242436    -0.59200
O906        O  0.04788083  0.43793737  0.16914523    -0.49200
O907        O  0.07400968  0.41165312  0.20247294    -0.55600
C908        C  0.07612173  0.46542553  0.17536153     0.84500
O909        O  0.10348840  0.42233757  0.16744950    -0.57500
O910        O  0.05171702  0.41033699  0.17647933    -0.60800
In911      In  0.93306523  0.43365795  0.32344155     1.36900
C912        C  0.92465461  0.46717006  0.33423099     0.76900
O913        O  0.95965882  0.44274276  0.31174468    -0.61500
O914        O  0.96003630  0.42212134  0.33181498    -0.52400
C915        C  0.92172492  0.40960774  0.34851870     0.69600
O916        O  0.91823515  0.40792787  0.33182456    -0.47300
C917        C  0.92230131  0.42800901  0.28913692     0.74300
O918        O  0.94058725  0.46118662  0.33311770    -0.59200
O919        O  0.93207820  0.41692015  0.29784144    -0.49200
O920        O  0.91256057  0.45571423  0.33027650    -0.55600
C921        C  0.96911510  0.43254289  0.32171366     0.84500
O922        O  0.92978065  0.42414306  0.35225535    -0.57500
O923        O  0.91731898  0.44144102  0.29843173    -0.60800
In924      In  0.08360390  0.43519359  0.32377732     1.36900
C925        C  0.09025089  0.42601076  0.28914225     0.76900
O926        O  0.05740575  0.42139836  0.33081265    -0.61500
O927        O  0.05626431  0.44605559  0.31606250    -0.52400
C928        C  0.09765165  0.41421846  0.35007390     0.69600
O929        O  0.10168910  0.41224291  0.33352634    -0.47300
C930        C  0.09365081  0.46882756  0.33229333     0.74300
O931        O  0.09642474  0.44022646  0.29630343    -0.59200
O932        O  0.07814132  0.46244873  0.33549638    -0.49200
O933        O  0.08128431  0.41622409  0.29996762    -0.55600
C934        C  0.04754225  0.43318125  0.32326909     0.84500
O935        O  0.08731690  0.42746010  0.35298916    -0.57500
O936        O  0.10442232  0.45780832  0.32473103    -0.60800
In937      In  0.93294258  0.18361922  0.57271566     1.36900
C938        C  0.96790282  0.18122259  0.58156894     0.76900
O939        O  0.94390050  0.17297387  0.54628468    -0.61500
O940        O  0.91760475  0.18447976  0.54647760    -0.52400
C941        C  0.91030192  0.15990747  0.58862027     0.69600
O942        O  0.92258631  0.15543212  0.57764637    -0.47300
C943        C  0.92521928  0.21841658  0.57913659     0.74300
O944        O  0.95629504  0.17003942  0.58735022    -0.59200
O945        O  0.92198751  0.21073699  0.56420571    -0.49200
O946        O  0.96151446  0.19380705  0.57186787    -0.55600
C947        C  0.93006051  0.17726035  0.53724487     0.84500
O948        O  0.90982488  0.17667171  0.59197673    -0.57500
O949        O  0.93171941  0.20792595  0.59111693    -0.60800
In950      In  0.07960886  0.17713996  0.56765837     1.36900
C951        C  0.08747904  0.21244157  0.57013185     0.76900
O952        O  0.09535735  0.17163849  0.54201992    -0.61500
O953        O  0.06684846  0.17441330  0.54014780    -0.52400
C954        C  0.10116839  0.15195590  0.58304873     0.69600
O955        O  0.10615298  0.16802144  0.58010340    -0.47300
C956        C  0.04523456  0.17503992  0.57877622     0.74300
O957        O  0.08539102  0.20256326  0.58406870    -0.59200
O958        O  0.05169461  0.16545779  0.56618456    -0.49200
O959        O  0.08595011  0.20406953  0.55535908    -0.55600
C960        C  0.08159114  0.17188405  0.53187045     0.84500
O961        O  0.08480299  0.14917059  0.57922779    -0.57500
O962        O  0.05665059  0.18522115  0.58637870    -0.60800
In963      In  0.08128869  0.32631401  0.57101510     1.36900
C964        C  0.08703001  0.29057670  0.57169828     0.76900
O965        O  0.05677264  0.32602135  0.58963077    -0.61500
O966        O  0.05311764  0.33052795  0.56139277    -0.52400
C967        C  0.09395711  0.35074105  0.59495085     0.69600
O968        O  0.09398130  0.33387846  0.59804329    -0.47300
C969        C  0.09186837  0.33463229  0.53707155     0.74300
O970        O  0.09906141  0.30163458  0.57668727    -0.59200
O971        O  0.07705407  0.33959486  0.54394355    -0.49200
O972        O  0.07223324  0.29779754  0.56722553    -0.55600
C973        C  0.04589617  0.32960876  0.57687886     0.84500
O974        O  0.08840423  0.35481991  0.57929043    -0.57500
O975        O  0.10199250  0.32603791  0.54797196    -0.60800
In976      In  0.93296794  0.33098603  0.57368715     1.36900
C977        C  0.93019310  0.33180771  0.53742069     0.76900
O978        O  0.95947319  0.34536688  0.57105662    -0.61500
O979        O  0.95872558  0.32124584  0.58675107    -0.52400
C980        C  0.91814491  0.35614254  0.59549642     0.69600
O981        O  0.92879490  0.35982265  0.58266680    -0.47300
C982        C  0.92306000  0.29674925  0.57981768     0.74300
O983        O  0.91805424  0.33853100  0.54754562    -0.59200
O984        O  0.93493303  0.30484350  0.58904182    -0.49200
O985        O  0.94345057  0.32520333  0.54593850    -0.55600
C986        C  0.96823613  0.33394389  0.58038017     0.84500
O987        O  0.91393259  0.33959705  0.59641308    -0.57500
O988        O  0.91510910  0.30681995  0.56838236    -0.60800
In989      In  0.93622120  0.32417300  0.42274896     1.36900
C990        C  0.92243530  0.29143205  0.41576833     0.76900
O991        O  0.96346314  0.31150837  0.41789580    -0.61500
O992        O  0.96260214  0.33948244  0.42409965    -0.52400
C993        C  0.92444147  0.35006712  0.39959864     0.69600
O994        O  0.92940162  0.33453046  0.39454324    -0.47300
C995        C  0.93156915  0.32600447  0.45882063     0.74300
O996        O  0.91473424  0.30249786  0.42632021    -0.59200
O997        O  0.91985623  0.33208256  0.44782923    -0.49200
O998        O  0.93587085  0.29795295  0.40747046    -0.55600
C999        C  0.97232522  0.32576069  0.42081436     0.84500
O1000       O  0.92479848  0.35205764  0.41658424    -0.57500
O1001       O  0.94538601  0.31940908  0.45124890    -0.60800
In1002     In  0.08688829  0.33052138  0.42350221     1.36900
C1003       C  0.09412987  0.33497257  0.45885673     0.76900
O1004       O  0.06009658  0.34267689  0.41526477    -0.61500
O1005       O  0.05996213  0.31800235  0.43002272    -0.52400
C1006       C  0.10107315  0.35672755  0.40229891     0.69600
O1007       O  0.09856444  0.35863088  0.41910615    -0.47300
C1008       C  0.09524679  0.29713838  0.41190006     0.74300
O1009       O  0.10537192  0.32783347  0.44800815    -0.59200
O1010       O  0.08375836  0.30725569  0.40425884    -0.49200
O1011       O  0.07979249  0.34051961  0.45134551    -0.55600
C1012       C  0.05072875  0.33019128  0.42229093     0.84500
O1013       O  0.09771269  0.34099687  0.39674057    -0.57500
O1014       O  0.10337363  0.30461455  0.42496504    -0.60800
In1015     In  0.93289793  0.18004399  0.42289234     1.36900
C1016       C  0.92118795  0.21368027  0.41519461     0.76900
O1017       O  0.91789669  0.18270978  0.44913265    -0.61500
O1018       O  0.94469739  0.17250895  0.45017752    -0.52400
C1019       C  0.91067489  0.15406064  0.41076814     0.69600
O1020       O  0.91159519  0.16952860  0.40338418    -0.47300
C1021       C  0.96849142  0.18113716  0.41469190     0.74300
O1022       O  0.92976747  0.20412924  0.40377932    -0.59200
O1023       O  0.95995997  0.19366938  0.42254895    -0.49200
O1024       O  0.91773060  0.20541967  0.42983151    -0.55600
C1025       C  0.93077774  0.17725712  0.45891653     0.84500
O1026       O  0.92265687  0.15117604  0.42256244    -0.57500
O1027       O  0.95854114  0.16791008  0.41035776    -0.60800
In1028     In  0.08270340  0.18615627  0.41861690     1.36900
C1029       C  0.04696226  0.18576924  0.41320155     0.76900
O1030       O  0.07740301  0.16794461  0.44275569    -0.61500
O1031       O  0.08895558  0.19380224  0.44730912    -0.52400
C1032       C  0.10674600  0.16157950  0.40633652     0.69600
O1033       O  0.08990559  0.16000195  0.40406321    -0.47300
C1034       C  0.09150844  0.21972480  0.40739293     0.74300
O1035       O  0.05786813  0.17767279  0.40267346    -0.59200
O1036       O  0.09846935  0.21187023  0.42089876    -0.49200
O1037       O  0.05445271  0.19404000  0.42613629    -0.55600
C1038       C  0.08357845  0.17906300  0.45410065     0.84500
O1039       O  0.11120692  0.17629185  0.41360999    -0.57500
O1040       O  0.08080864  0.20977803  0.39854051    -0.60800
In1041     In  0.92922147  0.68265903  0.42999617     1.36900
C1042       C  0.91494682  0.67846169  0.46324566     0.76900
O1043       O  0.95634052  0.68006558  0.44316906    -0.61500
O1044       O  0.95513031  0.67929725  0.41438095    -0.52400
C1045       C  0.91678700  0.65756410  0.40691972     0.69600
O1046       O  0.92479571  0.65383466  0.42151711    -0.47300
C1047       C  0.92832376  0.71836397  0.42254084     0.74300
O1048       O  0.92733034  0.66850092  0.45706699    -0.59200
O1049       O  0.94196121  0.70999129  0.42849569    -0.49200
O1050       O  0.90885602  0.68982080  0.45191961    -0.55600
C1051       C  0.96496443  0.67873634  0.42839762     0.84500
O1052       O  0.91425542  0.67433592  0.40446510    -0.57500
O1053       O  0.91462774  0.70832018  0.42034975    -0.60800
In1054     In  0.07892695  0.68543505  0.42298626     1.36900
C1055       C  0.08565143  0.72007659  0.41444067     0.76900
O1056       O  0.05242644  0.67321851  0.41443391    -0.61500
O1057       O  0.05212132  0.69323056  0.43498756    -0.52400
C1058       C  0.09283918  0.66273986  0.39800605     0.69600
O1059       O  0.08483632  0.67735020  0.39421773    -0.47300
C1060       C  0.08831372  0.67854836  0.45733607     0.74300
O1061       O  0.09755559  0.70969717  0.42115045    -0.59200
O1062       O  0.07614996  0.66990692  0.44910526    -0.49200
O1063       O  0.07072431  0.71243491  0.41147616    -0.55600
C1064       C  0.04307898  0.68234034  0.42550071     0.84500
O1065       O  0.09468227  0.66013725  0.41485318    -0.57500
O1066       O  0.09654681  0.69000474  0.44754132    -0.60800
In1067     In  0.92816237  0.68654832  0.57395675     1.36900
C1068       C  0.92155001  0.72089759  0.58324868     0.76900
O1069       O  0.95556245  0.68702505  0.58704510    -0.61500
O1070       O  0.95396609  0.67959741  0.55936642    -0.52400
C1071       C  0.91626061  0.66112494  0.59709397     0.69600
O1072       O  0.91023508  0.67717898  0.59733215    -0.47300
C1073       C  0.91554979  0.68356930  0.54011620     0.74300
O1074       O  0.93651229  0.71312395  0.58597937    -0.59200
O1075       O  0.91162116  0.67221909  0.55240779    -0.49200
O1076       O  0.90950323  0.71072919  0.57664959    -0.55600
C1077       C  0.96402131  0.68256101  0.57283793     0.84500
O1078       O  0.92784748  0.65826659  0.58488567    -0.57500
O1079       O  0.92557276  0.69633856  0.54528540    -0.60800
In1080     In  0.07840177  0.68162756  0.57032662     1.36900
C1081       C  0.08836650  0.67758692  0.53570615     0.76900
O1082       O  0.05243751  0.67522127  0.58503057    -0.61500
O1083       O  0.05092112  0.68485397  0.55797455    -0.52400
C1084       C  0.09120212  0.65745292  0.59434532     0.69600
O1085       O  0.08865385  0.65362767  0.57785327    -0.47300
C1086       C  0.08529928  0.71594439  0.57819053     0.74300
O1087       O  0.09588568  0.68873310  0.54619896    -0.59200
O1088       O  0.06955236  0.70943496  0.57794980    -0.49200
O1089       O  0.07710294  0.66728697  0.54351499    -0.55600
C1090       C  0.04240624  0.67981302  0.57197112     0.84500
O1091       O  0.08873521  0.67393788  0.59787491    -0.57500
O1092       O  0.09782430  0.70475273  0.57472985    -0.60800
In1093     In  0.93114513  0.83311320  0.57499564     1.36900
C1094       C  0.92230129  0.79862616  0.58144055     0.76900
O1095       O  0.91780910  0.84059585  0.54863551    -0.61500
O1096       O  0.94416255  0.82917149  0.54772051    -0.52400
C1097       C  0.90799755  0.85849798  0.58717770     0.69600
O1098       O  0.90389678  0.84198922  0.58582402    -0.47300
C1099       C  0.96522518  0.83740056  0.58622317     0.74300
O1100       O  0.92626807  0.80946144  0.59408067    -0.59200
O1101       O  0.95819484  0.84681329  0.57374517    -0.49200
O1102       O  0.92245855  0.80562834  0.56579103    -0.55600
C1103       C  0.93103694  0.83574169  0.53893088     0.84500
O1104       O  0.92442293  0.86169290  0.58378276    -0.57500
O1105       O  0.95441313  0.82653248  0.59386883    -0.60800
In1106     In  0.07654516  0.82825008  0.57329022     1.36900
C1107       C  0.04260224  0.83333193  0.58440006     0.76900
O1108       O  0.08829791  0.83776175  0.54683248    -0.61500
O1109       O  0.06311529  0.82413475  0.54637837    -0.52400
C1110       C  0.10044616  0.85184715  0.58722519     0.69600
O1111       O  0.08421027  0.85596764  0.58389151    -0.47300
C1112       C  0.08507117  0.79340099  0.57793692     0.74300
O1113       O  0.05350981  0.82325245  0.59299210    -0.59200
O1114       O  0.08722668  0.80172607  0.56311876    -0.49200
O1115       O  0.04952503  0.84173300  0.57116480    -0.55600
C1116       C  0.07527189  0.83214512  0.53735570     0.84500
O1117       O  0.10396534  0.83538626  0.58447465    -0.57500
O1118       O  0.07894426  0.80312366  0.59064372    -0.60800
In1119     In  0.93117830  0.83267078  0.42455534     1.36900
C1120       C  0.96474792  0.83886931  0.41231521     0.76900
O1121       O  0.94197535  0.84305529  0.45099739    -0.61500
O1122       O  0.91723758  0.82865490  0.45147505    -0.52400
C1123       C  0.90502091  0.85513027  0.41190365     0.69600
O1124       O  0.92168916  0.85821961  0.40993556    -0.47300
C1125       C  0.93072847  0.79679787  0.41982521     0.74300
O1126       O  0.95400126  0.82806541  0.40460791    -0.59200
O1127       O  0.92430089  0.80760173  0.40805354    -0.49200
O1128       O  0.95766129  0.84758741  0.42524849    -0.55600
C1129       C  0.92921169  0.83675402  0.46048711     0.84500
O1130       O  0.90185105  0.84003246  0.41926185    -0.57500
O1131       O  0.93681761  0.80439663  0.43382153    -0.60800
In1132     In  0.07688145  0.83193143  0.42277168     1.36900
C1133       C  0.08675081  0.79792243  0.41552817     0.76900
O1134       O  0.06647649  0.82179778  0.44956384    -0.61500
O1135       O  0.08346983  0.84485580  0.44955935    -0.52400
C1136       C  0.10159575  0.85525081  0.40941030     0.69600
O1137       O  0.10561656  0.84008681  0.41624397    -0.47300
C1138       C  0.04252390  0.83820984  0.41264354     0.74300
O1139       O  0.08928649  0.80533392  0.43070624    -0.59200
O1140       O  0.05073948  0.84748087  0.42433886    -0.49200
O1141       O  0.07990336  0.80830802  0.40362417    -0.55600
C1142       C  0.07416659  0.83384085  0.45883048     0.84500
O1143       O  0.08478586  0.85804194  0.40838154    -0.57500
O1144       O  0.05219417  0.82599951  0.40551974    -0.60800
In1145     In  0.67828948  0.08203214  0.43604592     1.36900
C1146       C  0.67227903  0.09048730  0.47095023     0.76900
O1147       O  0.66554198  0.05687676  0.42419929    -0.61500
O1148       O  0.68571234  0.05374499  0.44441087    -0.52400
C1149       C  0.65455114  0.09562689  0.41182177     0.69600
O1150       O  0.64992540  0.09031292  0.42748015    -0.47300
C1151       C  0.71335254  0.08865101  0.42885506     0.74300
O1152       O  0.67575098  0.10248265  0.45912391    -0.59200
O1153       O  0.70485386  0.07539323  0.42236078    -0.49200
O1154       O  0.67107390  0.07469746  0.46466755    -0.55600
C1155       C  0.67467103  0.04608552  0.43390603     0.84500
O1156       O  0.67146750  0.09557131  0.40933765    -0.57500
O1157       O  0.70362402  0.09912474  0.43827086    -0.60800
In1158     In  0.67962958  0.93212464  0.42594118     1.36900
C1159       C  0.71441276  0.92403942  0.41923707     0.76900
O1160       O  0.68909395  0.95954085  0.43475352    -0.61500
O1161       O  0.66593165  0.95838172  0.41778610    -0.52400
C1162       C  0.65662009  0.91867657  0.40100399     0.69600
O1163       O  0.67192283  0.92504613  0.39695311    -0.47300
C1164       C  0.67190770  0.92393970  0.46081862     0.74300
O1165       O  0.70675066  0.93816201  0.41328436    -0.59200
O1166       O  0.66745862  0.93855927  0.45310727    -0.49200
O1167       O  0.70390433  0.91347221  0.42767355    -0.55600
C1168       C  0.67676849  0.96819761  0.42658663     0.84500
O1169       O  0.65372398  0.91805838  0.41788356    -0.57500
O1170       O  0.67990050  0.91290697  0.45040568    -0.60800
In1171     In  0.67927639  0.93302227  0.57384277     1.36900
C1172       C  0.67247255  0.92331090  0.53924069     0.76900
O1173       O  0.68004823  0.96133455  0.56215619    -0.61500
O1174       O  0.67547825  0.95843845  0.59032326    -0.52400
C1175       C  0.65488766  0.91979127  0.59792690     0.69600
O1176       O  0.67162921  0.92040431  0.60096243    -0.47300
C1177       C  0.71448505  0.92647459  0.58011714     0.74300
O1178       O  0.66431056  0.93596670  0.54736639    -0.59200
O1179       O  0.70746402  0.94204943  0.58046900    -0.49200
O1180       O  0.68360747  0.91492974  0.54923202    -0.55600
C1181       C  0.67722258  0.96921778  0.57709657     0.84500
O1182       O  0.65088594  0.92443700  0.58193941    -0.57500
O1183       O  0.70348223  0.91393041  0.57634909    -0.60800
In1184     In  0.68440765  0.08382635  0.58328928     1.36900
C1185       C  0.71861080  0.09084034  0.59320077     0.76900
O1186       O  0.67362434  0.05708536  0.59401104    -0.61500
O1187       O  0.68868500  0.05694227  0.56957734    -0.52400
C1188       C  0.66060706  0.09856348  0.60654259     0.69600
O1189       O  0.67386799  0.08895159  0.61142331    -0.47300
C1190       C  0.67759697  0.09325250  0.54887660     0.74300
O1191       O  0.70781446  0.10322006  0.58815286    -0.59200
O1192       O  0.66619868  0.08554601  0.55910781    -0.49200
O1193       O  0.71163118  0.07527588  0.59370845    -0.55600
C1194       C  0.67989922  0.04781637  0.58108337     0.84500
O1195       O  0.66011614  0.10169881  0.58970334    -0.57500
O1196       O  0.69232510  0.09711973  0.55665185    -0.60800
In1197     In  0.82592176  0.93624314  0.57590592     1.36900
C1198       C  0.83104791  0.97021426  0.58844906     0.76900
O1199       O  0.82383801  0.95125326  0.54923819    -0.61500
O1200       O  0.82802595  0.92280064  0.54886990    -0.52400
C1201       C  0.85300486  0.91420181  0.58634897     0.69600
O1202       O  0.85409696  0.92565479  0.57371035    -0.47300
C1203       C  0.79222362  0.92472629  0.58252869     0.74300
O1204       O  0.84386797  0.95986876  0.58387362    -0.59200
O1205       O  0.80006447  0.92301212  0.56743588    -0.49200
O1206       O  0.81569876  0.96296971  0.58704507    -0.55600
C1207       C  0.82597141  0.93717371  0.53975538     0.84500
O1208       O  0.83785457  0.91422518  0.59443152    -0.57500
O1209       O  0.80220306  0.93109180  0.59492658    -0.60800
In1210     In  0.83053000  0.08293951  0.58369056     1.36900
C1211       C  0.79622412  0.09180279  0.59152664     0.76900
O1212       O  0.82114673  0.07377505  0.55633510    -0.61500
O1213       O  0.84410911  0.09085828  0.55718825    -0.52400
C1214       C  0.85398519  0.10759923  0.59651300     0.69600
O1215       O  0.83868370  0.11169586  0.59018619    -0.47300
C1216       C  0.83604149  0.04792817  0.59279396     0.74300
O1217       O  0.80334627  0.09448252  0.57616324    -0.59200
O1218       O  0.84446956  0.05592190  0.58020864    -0.49200
O1219       O  0.80696547  0.08535417  0.60326608    -0.55600
C1220       C  0.83337234  0.08183469  0.54747435     0.84500
O1221       O  0.85662624  0.09072071  0.59779820    -0.57500
O1222       O  0.82555603  0.05820311  0.60160392    -0.60800
In1223     In  0.82664493  0.93516656  0.42503389     1.36900
C1224       C  0.79241736  0.92582905  0.41867921     0.76900
O1225       O  0.82995911  0.92119504  0.45208057    -0.61500
O1226       O  0.82652567  0.94966128  0.45183864    -0.52400
C1227       C  0.85111124  0.91152300  0.41185229     0.69600
O1228       O  0.83440445  0.91028444  0.40852960    -0.47300
C1229       C  0.83075256  0.96959238  0.41349074     0.74300
O1230       O  0.80305612  0.93079752  0.40608620    -0.59200
O1231       O  0.84402097  0.95921744  0.41661689    -0.49200
O1232       O  0.79978790  0.92459191  0.43409384    -0.55600
C1233       C  0.82856305  0.93550358  0.46126258     0.84500
O1234       O  0.85526039  0.92536760  0.42087128    -0.57500
O1235       O  0.81564290  0.96189429  0.41503847    -0.60800
In1236     In  0.82730302  0.08080719  0.43266114     1.36900
C1237       C  0.83184499  0.04699989  0.42014864     0.76900
O1238       O  0.83289968  0.09601157  0.45881107    -0.61500
O1239       O  0.82978714  0.06751494  0.45997305    -0.52400
C1240       C  0.85237447  0.10286505  0.41726956     0.69600
O1241       O  0.85495221  0.08627019  0.42037853    -0.47300
C1242       C  0.79165354  0.08770760  0.42927282     0.74300
O1243       O  0.82061459  0.05798885  0.41323275    -0.59200
O1244       O  0.79933956  0.08463417  0.44422374    -0.49200
O1245       O  0.84080260  0.05352859  0.43310567    -0.55600
C1246       C  0.83264201  0.08192715  0.46866674     0.84500
O1247       O  0.83660396  0.10805164  0.42139866    -0.57500
O1248       O  0.80225084  0.08737305  0.41576303    -0.60800
C1249       C  0.83259064  0.98948253  0.41036179    -0.06800
C1250       C  0.84830209  0.99813602  0.41668240    -0.17900
C1251       C  0.84903959  0.01706801  0.41849731     0.10400
C1252       C  0.83357100  0.02773431  0.41442280    -0.06700
C1253       C  0.81857549  0.01926274  0.40638056    -0.17900
C1254       C  0.81805976  0.00037899  0.40401677     0.10400
S1255       S  0.87005242  0.02666158  0.42635522    -0.32900
S1256       S  0.79831725  0.99107634  0.39312082    -0.32900
H1257       H  0.80781042  0.97694658  0.38444599     0.28500
H1258       H  0.86877662  0.04240411  0.41548549     0.28400
H1259       H  0.85975156  0.99012682  0.42106833     0.19000
H1260       H  0.80686938  0.02725974  0.40258127     0.19000
C1261       C  0.83472729  0.08102442  0.52737689    -0.06800
C1262       C  0.84223725  0.09580546  0.51783831    -0.17900
C1263       C  0.84236747  0.09636490  0.49873997     0.10400
C1264       C  0.83456763  0.08193810  0.48880004    -0.06700
C1265       C  0.82771652  0.06690477  0.49842724    -0.17900
C1266       C  0.82792969  0.06617216  0.51741512     0.10400
S1267       S  0.85285965  0.11573863  0.48803857    -0.32900
S1268       S  0.81967716  0.04562899  0.52798241    -0.32900
H1269       H  0.83338748  0.04491988  0.54124818     0.28500
H1270       H  0.86184110  0.10546093  0.47467390     0.28400
H1271       H  0.84778026  0.10712066  0.52527381     0.19000
H1272       H  0.82197927  0.05558853  0.49112802     0.19000
C1273       C  0.82639139  0.93718206  0.51966288    -0.06800
C1274       C  0.83604427  0.92322931  0.51095378    -0.17900
C1275       C  0.83722408  0.92237967  0.49196347     0.10400
C1276       C  0.82841980  0.93576340  0.48135363    -0.06700
C1277       C  0.81870696  0.94967852  0.49005465    -0.17900
C1278       C  0.81740597  0.95044179  0.50905464     0.10400
S1279       S  0.85056749  0.90453259  0.48165485    -0.32900
S1280       S  0.80344887  0.96780141  0.51937258    -0.32900
H1281       H  0.79599236  0.97480453  0.50319828     0.28500
H1282       H  0.85844442  0.89783463  0.49775564     0.28400
H1283       H  0.84285952  0.91304329  0.51909312     0.19000
H1284       H  0.81178301  0.95978007  0.48189159     0.19000
C1285       C  0.83375479  0.98956812  0.59360879    -0.06800
C1286       C  0.84963547  0.99834923  0.58774339    -0.17900
C1287       C  0.85153842  0.01725045  0.58898447     0.10400
C1288       C  0.83705750  0.02791761  0.59573496    -0.06700
C1289       C  0.82193535  0.01898747  0.60321572    -0.17900
C1290       C  0.82027899  0.00000822  0.60250541     0.10400
S1291       S  0.87273426  0.02687429  0.58152224    -0.32900
S1292       S  0.80057778  0.99005302  0.61306869    -0.32900
H1293       H  0.80980321  0.97452681  0.61942626     0.28500
H1294       H  0.87278111  0.04077059  0.59459703     0.28400
H1295       H  0.86038809  0.99057305  0.58150826     0.19000
H1296       H  0.81095053  0.02684622  0.60896072     0.19000
C1297       C  0.73821998  0.09382493  0.59665457    -0.06800
C1298       C  0.74722753  0.10740547  0.58667048    -0.17900
C1299       C  0.76627590  0.10786780  0.58569447     0.10400
C1300       C  0.77656504  0.09451406  0.59494904    -0.06700
C1301       C  0.76758842  0.08210359  0.60634959    -0.17900
C1302       C  0.74863111  0.08173863  0.60744293     0.10400
S1303       S  0.77725122  0.12544272  0.57247288    -0.32900
S1304       S  0.73860334  0.06533777  0.62269138    -0.32900
H1305       H  0.72354459  0.07622967  0.62712770     0.28500
H1306       H  0.76140828  0.13466543  0.56711113     0.28400
H1307       H  0.73936179  0.11692237  0.57873541     0.19000
H1308       H  0.77532070  0.07209328  0.61384576     0.19000
C1309       C  0.67643059  0.98937065  0.57868874    -0.06800
C1310       C  0.67710595  0.99974269  0.56258610    -0.17900
C1311       C  0.67734741  0.01874380  0.56292936     0.10400
C1312       C  0.67757771  0.02788381  0.57977956    -0.06700
C1313       C  0.67637212  0.01764225  0.59587582    -0.17900
C1314       C  0.67560620  0.99862442  0.59555204     0.10400
S1315       S  0.67672025  0.03044803  0.54133176    -0.32900
S1316       S  0.67413809  0.98718945  0.61720327    -0.32900
H1317       H  0.65825273  0.97777845  0.61251581     0.28500
H1318       H  0.66495029  0.04427930  0.54727388     0.28400
H1319       H  0.67730684  0.99304657  0.54954973     0.19000
H1320       H  0.67635461  0.02449006  0.60887875     0.19000
C1321       C  0.73412880  0.92352857  0.58328393    -0.06800
C1322       C  0.74362805  0.91128641  0.57223435    -0.17900
C1323       C  0.76259588  0.91011204  0.57283155     0.10400
C1324       C  0.77245697  0.92151151  0.58470090    -0.06700
C1325       C  0.76281934  0.93261552  0.59682441    -0.17900
C1326       C  0.74382255  0.93382982  0.59617892     0.10400
S1327       S  0.77339535  0.89403849  0.55787692    -0.32900
S1328       S  0.73211399  0.94861668  0.61188016    -0.32900
H1329       H  0.74760636  0.95668942  0.61943409     0.28500
H1330       H  0.78772169  0.89000385  0.56984599     0.28400
H1331       H  0.73626794  0.90307746  0.56249417     0.19000
H1332       H  0.77024426  0.94118681  0.60608527     0.19000
C1333       C  0.66903009  0.92074810  0.48066500    -0.06800
C1334       C  0.68035706  0.90846200  0.48997671    -0.17900
C1335       C  0.68062370  0.90763018  0.50910232     0.10400
C1336       C  0.66987094  0.91988394  0.51936553    -0.06700
C1337       C  0.65743570  0.93094809  0.50996008    -0.17900
C1338       C  0.65664131  0.93124688  0.49094073     0.10400
S1339       S  0.69538177  0.89103532  0.51939996    -0.32900
S1340       S  0.63956058  0.94554325  0.48072168    -0.32900
H1341       H  0.63580248  0.93346060  0.46645216     0.28500
H1342       H  0.68233404  0.88532007  0.53218277     0.28400
H1343       H  0.68955710  0.89991085  0.48236886     0.19000
H1344       H  0.64850855  0.93990344  0.51744713     0.19000
C1345       C  0.73424819  0.92100984  0.41719604    -0.06800
C1346       C  0.74335639  0.93002200  0.40297439    -0.17900
C1347       C  0.76239580  0.93076824  0.40223930     0.10400
C1348       C  0.77267065  0.92258356  0.41630196    -0.06700
C1349       C  0.76355132  0.91267880  0.42990714    -0.17900
C1350       C  0.74461950  0.91154477  0.43034026     0.10400
S1351       S  0.77308879  0.94338477  0.38400912    -0.32900
S1352       S  0.73464562  0.89914517  0.44898858    -0.32900
H1353       H  0.72432802  0.88798454  0.43751237     0.28500
H1354       H  0.75718723  0.94831711  0.37468756     0.28400
H1355       H  0.73549094  0.93708348  0.39279797     0.19000
H1356       H  0.77119328  0.90616615  0.44062720     0.19000
C1357       C  0.67083150  0.09407830  0.49072809    -0.06800
C1358       C  0.68281014  0.10645824  0.49879440    -0.17900
C1359       C  0.68459806  0.10750512  0.51779247     0.10400
C1360       C  0.67427260  0.09578950  0.52908632    -0.06700
C1361       C  0.66139293  0.08442397  0.52095434    -0.17900
C1362       C  0.65953568  0.08347204  0.50208762     0.10400
S1363       S  0.70045041  0.12376809  0.52667005    -0.32900
S1364       S  0.64276186  0.06802441  0.49339554    -0.32900
H1365       H  0.63844322  0.07864874  0.47804491     0.28500
H1366       H  0.68965370  0.12840525  0.54175362     0.28400
H1367       H  0.69148796  0.11480530  0.49021762     0.19000
H1368       H  0.65314261  0.07551730  0.52932662     0.19000
C1369       C  0.67305627  0.02611830  0.43272317    -0.06800
C1370       C  0.66853041  0.01825483  0.41595902    -0.17900
C1371       C  0.66942472  0.99938764  0.41349460     0.10400
C1372       C  0.67496049  0.98810772  0.42807772    -0.06700
C1373       C  0.67864989  0.99595088  0.44501511    -0.17900
C1374       C  0.67726347  0.01468467  0.44760342     0.10400
S1375       S  0.66431391  0.99075953  0.39119791    -0.32900
S1376       S  0.68008856  0.02299723  0.47044427    -0.32900
H1377       H  0.66648768  0.03635620  0.46894377     0.28500
H1378       H  0.67832293  0.97776950  0.39112313     0.28400
H1379       H  0.66508204  0.02682165  0.40456169     0.19000
H1380       H  0.68216815  0.98739685  0.45642681     0.19000
C1381       C  0.73329053  0.09092635  0.42689792    -0.06800
C1382       C  0.74270911  0.09928822  0.44115188    -0.17900
C1383       C  0.76169100  0.09928666  0.44176457     0.10400
C1384       C  0.77176922  0.09067941  0.42784484    -0.06700
C1385       C  0.76240549  0.08328914  0.41301970    -0.17900
C1386       C  0.74337450  0.08335624  0.41236912     0.10400
S1387       S  0.77216023  0.11039536  0.46083164    -0.32900
S1388       S  0.73284743  0.07342902  0.39270479    -0.32900
H1389       H  0.71858940  0.08613480  0.39190852     0.28500
H1390       H  0.78705914  0.11703632  0.45087334     0.28400
H1391       H  0.73526290  0.10528459  0.45228570     0.19000
H1392       H  0.76992377  0.07683192  0.40217001     0.19000
C1393       C  0.89065804  0.86878432  0.40749587    -0.06800
C1394       C  0.89590185  0.88697867  0.40494056    -0.17900
C1395       C  0.88311955  0.90110455  0.40455344     0.10400
C1396       C  0.86454880  0.89721231  0.40715336    -0.06700
C1397       C  0.85911517  0.87895923  0.40799269    -0.17900
C1398       C  0.87186928  0.86476461  0.40798927     0.10400
S1399       S  0.89142458  0.92384390  0.40094771    -0.32900
S1400       S  0.86316673  0.84194916  0.40915807    -0.32900
H1401       H  0.87610325  0.83483880  0.39701904     0.28500
H1402       H  0.87582442  0.93007671  0.39185309     0.28400
H1403       H  0.91012044  0.89037999  0.40399131     0.19000
H1404       H  0.84491869  0.87572453  0.40959404     0.19000
C1405       C  0.98440938  0.84041571  0.40788573    -0.06800
C1406       C  0.99396149  0.85541742  0.41461380    -0.17900
C1407       C  0.01292725  0.85595487  0.41447543     0.10400
C1408       C  0.02288171  0.84057972  0.40864636    -0.06700
C1409       C  0.01339806  0.82624049  0.40054234    -0.17900
C1410       C  0.99442223  0.82624691  0.39954825     0.10400
S1411       S  0.02353841  0.87669268  0.42174674    -0.32900
S1412       S  0.98395096  0.80737122  0.38825690    -0.32900
H1413       H  0.97251563  0.81851391  0.37770069     0.28500
H1414       H  0.03755316  0.87582582  0.40874732     0.28400
H1415       H  0.98652973  0.86686149  0.42036460     0.19000
H1416       H  0.02083344  0.81451732  0.39536357     0.19000
C1417       C  0.07428825  0.83425088  0.51733473    -0.06800
C1418       C  0.06068069  0.82482498  0.50797527    -0.17900
C1419       C  0.05956854  0.82534177  0.48901493     0.10400
C1420       C  0.07297068  0.83470142  0.47889499    -0.06700
C1421       C  0.08611109  0.84471687  0.48824923    -0.17900
C1422       C  0.08662518  0.84501555  0.50723346     0.10400
S1423       S  0.04034285  0.81436691  0.47876091    -0.32900
S1424       S  0.10303330  0.85981026  0.51753469    -0.32900
H1425       H  0.09044649  0.86745156  0.52973417     0.28500
H1426       H  0.03707858  0.82851045  0.46622415     0.28400
H1427       H  0.05066462  0.81702190  0.51548217     0.19000
H1428       H  0.09616452  0.85245067  0.48070031     0.19000
C1429       C  0.89449245  0.87317386  0.59059563    -0.06800
C1430       C  0.89896871  0.89089827  0.58510571    -0.17900
C1431       C  0.88609269  0.90486667  0.58500143     0.10400
C1432       C  0.86797723  0.90119362  0.59023178    -0.06700
C1433       C  0.86377897  0.88384239  0.59701215    -0.17900
C1434       C  0.87679491  0.86981453  0.59731242     0.10400
S1435       S  0.89371935  0.92701564  0.57775787    -0.32900
S1436       S  0.87043777  0.84772848  0.60599914    -0.32900
H1437       H  0.85325155  0.85272164  0.61263534     0.28500
H1438       H  0.88271160  0.93657695  0.59011040     0.28400
H1439       H  0.91252682  0.89383955  0.58019981     0.19000
H1440       H  0.84995184  0.88098495  0.60118721     0.19000
C1441       C  0.93082691  0.83723342  0.51891478    -0.06800
C1442       C  0.91407979  0.83607965  0.50998332    -0.17900
C1443       C  0.91297065  0.83655823  0.49100689     0.10400
C1444       C  0.92901579  0.83797233  0.48054556    -0.06700
C1445       C  0.94570743  0.83961223  0.48952145    -0.17900
C1446       C  0.94679284  0.83939691  0.50848565     0.10400
S1447       S  0.89066095  0.83564136  0.48113758    -0.32900
S1448       S  0.96890902  0.84231491  0.51841773    -0.32900
H1449       H  0.96287955  0.85408008  0.53219657     0.28500
H1450       H  0.89426586  0.84892263  0.46779455     0.28400
H1451       H  0.90173366  0.83462538  0.51783359     0.19000
H1452       H  0.95812081  0.84084377  0.48169761     0.19000
C1453       C  0.98489100  0.83779269  0.59014806    -0.06800
C1454       C  0.99354357  0.82134279  0.59460690    -0.17900
C1455       C  0.01243350  0.81956605  0.59351703     0.10400
C1456       C  0.02306128  0.83477783  0.58857012    -0.06700
C1457       C  0.01446822  0.85152053  0.58547975    -0.17900
C1458       C  0.99561335  0.85323447  0.58637667     0.10400
S1459       S  0.02181594  0.79709686  0.59639834    -0.32900
S1460       S  0.98608513  0.87543684  0.58227402    -0.32900
H1461       H  0.97112789  0.87299198  0.59392944     0.28500
H1462       H  0.03286210  0.79797518  0.58079258     0.28400
H1463       H  0.98548368  0.80934186  0.59734327     0.19000
H1464       H  0.02250207  0.86331674  0.58189152     0.19000
C1465       C  0.08840689  0.73540566  0.58112038    -0.06800
C1466       C  0.09963107  0.74468952  0.56883599    -0.17900
C1467       C  0.09961399  0.76373571  0.56801536     0.10400
C1468       C  0.08821762  0.77364196  0.57992719    -0.06700
C1469       C  0.07819690  0.76425676  0.59321481    -0.17900
C1470       C  0.07819501  0.74530075  0.59393543     0.10400
S1471       S  0.11390480  0.77500797  0.55146553    -0.32900
S1472       S  0.06449447  0.73452417  0.61122344    -0.32900
H1473       H  0.07525170  0.71878549  0.61274478     0.28500
H1474       H  0.12246547  0.75934670  0.54466929     0.28400
H1475       H  0.10747489  0.73699533  0.55911075     0.19000
H1476       H  0.06967367  0.77164670  0.60257081     0.19000
C1477       C  0.98404351  0.68117822  0.57223070    -0.06800
C1478       C  0.99351149  0.68006752  0.58876109    -0.17900
C1479       C  0.01245827  0.67971688  0.58924020     0.10400
C1480       C  0.02237557  0.67969031  0.57274740    -0.06700
C1481       C  0.01289150  0.68035219  0.55623842    -0.17900
C1482       C  0.99401495  0.68153086  0.55577446     0.10400
S1483       S  0.02296848  0.68046477  0.61131838    -0.32900
S1484       S  0.98378981  0.68471913  0.53376315    -0.32900
H1485       H  0.97340527  0.69979356  0.53926764     0.28500
H1486       H  0.03441897  0.69505498  0.60670799     0.28400
H1487       H  0.98611254  0.68000507  0.60151274     0.19000
H1488       H  0.02027813  0.68055753  0.54347544     0.19000
C1489       C  0.91895233  0.74065869  0.58594287    -0.06800
C1490       C  0.90756515  0.74997524  0.57378957    -0.17900
C1491       C  0.90738146  0.76896361  0.57292455     0.10400
C1492       C  0.91891266  0.77904205  0.58439668    -0.06700
C1493       C  0.92921108  0.76979795  0.59753726    -0.17900
C1494       C  0.92932018  0.75078466  0.59848099     0.10400
S1495       S  0.89241901  0.77946175  0.55659214    -0.32900
S1496       S  0.94326337  0.74032694  0.61571310    -0.32900
H1497       H  0.93166205  0.72545312  0.61862913     0.28500
H1498       H  0.88874022  0.79487921  0.56722379     0.28400
H1499       H  0.89940049  0.74242965  0.56423044     0.19000
H1500       H  0.93793799  0.77738724  0.60657738     0.19000
C1501       C  0.09147629  0.67663059  0.47717574    -0.06800
C1502       C  0.09809053  0.69174344  0.48664609    -0.17900
C1503       C  0.09789100  0.69227718  0.50568957     0.10400
C1504       C  0.09141146  0.67713964  0.51572205    -0.06700
C1505       C  0.08600707  0.66154839  0.50621248    -0.17900
C1506       C  0.08603650  0.66109649  0.48711405     0.10400
S1507       S  0.10460692  0.71333464  0.51605421    -0.32900
S1508       S  0.07920427  0.64051363  0.47574036    -0.32900
H1509       H  0.07665973  0.62981053  0.49142874     0.28500
H1510       H  0.08818150  0.71541991  0.52559844     0.28400
H1511       H  0.10225285  0.70366426  0.47924977     0.19000
H1512       H  0.08133892  0.64992272  0.51372385     0.19000
C1513       C  0.08843200  0.73985363  0.41169846    -0.06800
C1514       C  0.10077817  0.74879323  0.42302317    -0.17900
C1515       C  0.10163663  0.76776386  0.42360476     0.10400
C1516       C  0.08987855  0.77825270  0.41254301    -0.06700
C1517       C  0.07872496  0.76930925  0.40003351    -0.17900
C1518       C  0.07774208  0.75028191  0.39954815     0.10400
S1519       S  0.11766087  0.77765131  0.43912637    -0.32900
S1520       S  0.06252403  0.73962742  0.38360774    -0.32900
H1521       H  0.05562204  0.75564506  0.37571623     0.28500
H1522       H  0.12172778  0.79259350  0.42784744     0.28400
H1523       H  0.10928538  0.74093187  0.43224118     0.19000
H1524       H  0.06985392  0.77729860  0.39135401     0.19000
C1525       C  0.90979578  0.67836484  0.48271248    -0.06800
C1526       C  0.90635465  0.69517862  0.49093274    -0.17900
C1527       C  0.90653957  0.69700310  0.50984566     0.10400
C1528       C  0.91005136  0.68166630  0.52091097    -0.06700
C1529       C  0.91127912  0.66448252  0.51280546    -0.17900
C1530       C  0.91134697  0.66267845  0.49377241     0.10400
S1531       S  0.90311206  0.71945339  0.51896576    -0.32900
S1532       S  0.91406369  0.64045848  0.48378846    -0.32900
H1533       H  0.91448938  0.63055879  0.50019420     0.28500
H1534       H  0.89545671  0.71356313  0.53550422     0.28400
H1535       H  0.90485687  0.70723095  0.48261220     0.19000
H1536       H  0.91362699  0.65269480  0.52131472     0.19000
C1537       C  0.98498687  0.67787057  0.42778354    -0.06800
C1538       C  0.99462337  0.68372548  0.44310743    -0.17900
C1539       C  0.01356085  0.68483310  0.44302319     0.10400
C1540       C  0.02317619  0.68053552  0.42694626    -0.06700
C1541       C  0.01359740  0.67411247  0.41183767    -0.17900
C1542       C  0.99474972  0.67237364  0.41217903     0.10400
S1543       S  0.02512808  0.69102606  0.46374330    -0.32900
S1544       S  0.98416486  0.66242527  0.39255718    -0.32900
H1545       H  0.97220239  0.65154681  0.40279525     0.28500
H1546       H  0.00993756  0.69033587  0.47532093     0.28400
H1547       H  0.98720670  0.68774665  0.45526425     0.19000
H1548       H  0.02091249  0.67027365  0.39955647     0.19000
C1549       C  0.92893022  0.73837092  0.41924169    -0.06800
C1550       C  0.94469362  0.74753557  0.42473299    -0.17900
C1551       C  0.94597821  0.76642691  0.42411339     0.10400
C1552       C  0.93114456  0.77682770  0.41779496    -0.06700
C1553       C  0.91578793  0.76780743  0.41119279    -0.17900
C1554       C  0.91448880  0.74876235  0.41184092     0.10400
S1555       S  0.96692470  0.77630519  0.43193420    -0.32900
S1556       S  0.89385561  0.73878882  0.40362961    -0.32900
H1557       H  0.90284742  0.72553743  0.39322912     0.28500
H1558       H  0.96629822  0.79157960  0.42045561     0.28400
H1559       H  0.95614637  0.73995493  0.43008827     0.19000
H1560       H  0.90437234  0.77569069  0.40619261     0.19000
C1561       C  0.89542775  0.14129427  0.40797642    -0.06800
C1562       C  0.89888228  0.12267860  0.40573263    -0.17900
C1563       C  0.88479644  0.10984584  0.40664578     0.10400
C1564       C  0.86688980  0.11557197  0.41090014    -0.06700
C1565       C  0.86334855  0.13431992  0.41164856    -0.17900
C1566       C  0.87732600  0.14711189  0.41039914     0.10400
S1567       S  0.89071284  0.08646096  0.40254973    -0.32900
S1568       S  0.87140302  0.17054500  0.41427718    -0.32900
H1569       H  0.88489673  0.17339427  0.42744581     0.28500
H1570       H  0.87491153  0.08277806  0.39254300     0.28400
H1571       H  0.91265586  0.11808432  0.40362483     0.19000
H1572       H  0.84979813  0.13908237  0.41462164     0.19000
C1573       C  0.98853421  0.18224034  0.41171621    -0.06800
C1574       C  0.99718937  0.19858125  0.41640063    -0.17900
C1575       C  0.01604988  0.20037972  0.41586287     0.10400
C1576       C  0.02696588  0.18537407  0.41105510    -0.06700
C1577       C  0.01846840  0.16924668  0.40558612    -0.17900
C1578       C  0.99946496  0.16758016  0.40565794     0.10400
S1579       S  0.02529811  0.22238053  0.42116612    -0.32900
S1580       S  0.99021188  0.14621662  0.39847334    -0.32900
H1581       H  0.97819471  0.15433507  0.38600207     0.28500
H1582       H  0.03965773  0.22126357  0.40861124     0.28400
H1583       H  0.98922043  0.21016693  0.42064683     0.19000
H1584       H  0.02667608  0.15769333  0.40172071     0.19000
C1585       C  0.09743180  0.27768442  0.40687183    -0.06800
C1586       C  0.08377089  0.26963821  0.39629500    -0.17900
C1587       C  0.08246769  0.25073744  0.39447768     0.10400
C1588       C  0.09491116  0.23935104  0.40373700    -0.06700
C1589       C  0.10961170  0.24749376  0.41270393    -0.17900
C1590       C  0.11114071  0.26638671  0.41417440     0.10400
S1591       S  0.06364115  0.24220538  0.38158449    -0.32900
S1592       S  0.13054712  0.27502793  0.42613615    -0.32900
H1593       H  0.13285260  0.29006076  0.41447280     0.28500
H1594       H  0.07436774  0.22987119  0.37171214     0.28400
H1595       H  0.07335351  0.27803678  0.39019370     0.19000
H1596       H  0.11964974  0.23904093  0.41938703     0.19000
C1597       C  0.91752114  0.27195236  0.41414026    -0.06800
C1598       C  0.92276480  0.26264631  0.39833009    -0.17900
C1599       C  0.92225213  0.24363267  0.39739113     0.10400
C1600       C  0.91695686  0.23340661  0.41285292    -0.06700
C1601       C  0.90993549  0.24282177  0.42794586    -0.17900
C1602       C  0.91025776  0.26182244  0.42882597     0.10400
S1603       S  0.92908898  0.23340417  0.37627704    -0.32900
S1604       S  0.90307220  0.27202016  0.44987272    -0.32900
H1605       H  0.91973825  0.28077123  0.45276124     0.28500
H1606       H  0.91545512  0.22007439  0.37681269     0.28400
H1607       H  0.92790317  0.27022899  0.38676193     0.19000
H1608       H  0.90540154  0.23533313  0.43984008     0.19000
C1609       C  0.99239096  0.32640500  0.42072957    -0.06800
C1610       C  0.00085815  0.34313994  0.41738844    -0.17900
C1611       C  0.01972642  0.34491222  0.41791273     0.10400
C1612       C  0.03066132  0.32948772  0.42148332    -0.06700
C1613       C  0.02218643  0.31266681  0.42446887    -0.17900
C1614       C  0.00331487  0.31097439  0.42436598     0.10400
S1615       S  0.02878098  0.36739260  0.41471304    -0.32900
S1616       S  0.99419177  0.28892888  0.42989304    -0.32900
H1617       H  0.98163491  0.29568591  0.44262544     0.28500
H1618       H  0.03999281  0.36639481  0.43014624     0.28400
H1619       H  0.99267299  0.35509485  0.41464212     0.19000
H1620       H  0.03033413  0.30068474  0.42722752     0.19000
C1621       C  0.92917116  0.33064115  0.51728538    -0.06800
C1622       C  0.93782578  0.31576710  0.50909934    -0.17900
C1623       C  0.93817216  0.31360782  0.49020131     0.10400
C1624       C  0.92968488  0.32668781  0.47892902    -0.06700
C1625       C  0.92034600  0.34123162  0.48707302    -0.17900
C1626       C  0.92023334  0.34348586  0.50607387     0.10400
S1627       S  0.94886404  0.29355358  0.48086918    -0.32900
S1628       S  0.90953888  0.36358050  0.51498765    -0.32900
H1629       H  0.92324120  0.36711871  0.52775515     0.28500
H1630       H  0.95716243  0.28747602  0.49699617     0.28400
H1631       H  0.94423879  0.30564928  0.51760690     0.19000
H1632       H  0.91388893  0.35135203  0.47859520     0.19000
C1633       C  0.98817949  0.33474427  0.58220601    -0.06800
C1634       C  0.99765451  0.34531900  0.56946519    -0.17900
C1635       C  0.01647060  0.34456600  0.56816284     0.10400
C1636       C  0.02630017  0.33262449  0.57958020    -0.06700
C1637       C  0.01703290  0.32292787  0.59318911    -0.17900
C1638       C  0.99811567  0.32406591  0.59480857     0.10400
S1639       S  0.02704191  0.35933685  0.55163579    -0.32900
S1640       S  0.98760303  0.31173302  0.61323376    -0.32900
H1641       H  0.97479752  0.32540234  0.61705555     0.28500
H1642       H  0.04197892  0.36360968  0.56267233     0.28400
H1643       H  0.99033537  0.35393417  0.55999229     0.19000
H1644       H  0.02451184  0.31412916  0.60236853     0.19000
C1645       C  0.09605840  0.33740547  0.51745944    -0.06800
C1646       C  0.10620736  0.32410758  0.50828182    -0.17900
C1647       C  0.10653858  0.32335110  0.48918639     0.10400
C1648       C  0.09679810  0.33638789  0.47886282    -0.06700
C1649       C  0.08790575  0.35051357  0.48810026    -0.17900
C1650       C  0.08766736  0.35131874  0.50713123     0.10400
S1651       S  0.11807566  0.30436075  0.47899992    -0.32900
S1652       S  0.07628327  0.37042358  0.51737914    -0.32900
H1653       H  0.08774637  0.37122869  0.53262615     0.28500
H1654       H  0.10326841  0.29941223  0.46807837     0.28400
H1655       H  0.11272682  0.31337503  0.51597259     0.19000
H1656       H  0.08080053  0.36087748  0.48044222     0.19000
C1657       C  0.08281473  0.17086666  0.51184082    -0.06800
C1658       C  0.09826553  0.17813960  0.50338185    -0.17900
C1659       C  0.09908902  0.18044444  0.48447998     0.10400
C1660       C  0.08411811  0.17536272  0.47377504    -0.06700
C1661       C  0.06914364  0.16705274  0.48205795    -0.17900
C1662       C  0.06836257  0.16463963  0.50092214     0.10400
S1663       S  0.11938818  0.18959889  0.47415728    -0.32900
S1664       S  0.04870662  0.15335025  0.51012972    -0.32900
H1665       H  0.05820883  0.14433474  0.52408704     0.28500
H1666       H  0.12995460  0.18993462  0.49004596     0.28400
H1667       H  0.10945508  0.18275711  0.51169794     0.19000
H1668       H  0.05776795  0.16274528  0.47379109     0.19000
C1669       C  0.09013761  0.23240065  0.57048597    -0.06800
C1670       C  0.08427375  0.24226914  0.55519333    -0.17900
C1671       C  0.08403452  0.26124016  0.55505718     0.10400
C1672       C  0.08974270  0.27076080  0.57059044    -0.06700
C1673       C  0.09680351  0.26107694  0.58547192    -0.17900
C1674       C  0.09720475  0.24198454  0.58552404     0.10400
S1675       S  0.07672989  0.27320848  0.53479429    -0.32900
S1676       S  0.10714180  0.23076553  0.60491875    -0.32900
H1677       H  0.11523106  0.21675875  0.59476332     0.28500
H1678       H  0.07119468  0.25789500  0.52490978     0.28400
H1679       H  0.07929372  0.23506818  0.54341034     0.19000
H1680       H  0.10158360  0.26838435  0.59726489     0.19000
C1681       C  0.89686164  0.14669503  0.59575527    -0.06800
C1682       C  0.87902632  0.15260473  0.59894751    -0.17900
C1683       C  0.86479867  0.14009229  0.60119816     0.10400
C1684       C  0.86842817  0.12125690  0.59985775    -0.06700
C1685       C  0.88656025  0.11547072  0.59886293    -0.17900
C1686       C  0.90075489  0.12793013  0.59704060     0.10400
S1687       S  0.84214259  0.14846440  0.60533593    -0.32900
S1688       S  0.92349152  0.11895785  0.59599732    -0.32900
H1689       H  0.93157672  0.13399465  0.60446102     0.28500
H1690       H  0.84714611  0.16639609  0.60950650     0.28400
H1691       H  0.87602938  0.16696285  0.59850598     0.19000
H1692       H  0.88969236  0.10111007  0.59849203     0.19000
C1693       C  0.92891370  0.17531953  0.51730728    -0.06800
C1694       C  0.91837716  0.18803530  0.50777045    -0.17900
C1695       C  0.91890742  0.18911126  0.48883890     0.10400
C1696       C  0.92972282  0.17671799  0.47894576    -0.06700
C1697       C  0.93976919  0.16353610  0.48842817    -0.17900
C1698       C  0.93933121  0.16256109  0.50744084     0.10400
S1699       S  0.90678011  0.20768154  0.47836288    -0.32900
S1700       S  0.95190920  0.14446435  0.51819204    -0.32900
H1701       H  0.93899277  0.14137379  0.53196756     0.28500
H1702       H  0.92134863  0.21280111  0.46707851     0.28400
H1703       H  0.91047707  0.19804183  0.51517309     0.19000
H1704       H  0.94787263  0.15375782  0.48095476     0.19000
C1705       C  0.92219766  0.23823843  0.58170377    -0.06800
C1706       C  0.91146363  0.24757050  0.56890463    -0.17900
C1707       C  0.91001708  0.26655739  0.56890851     0.10400
C1708       C  0.92015970  0.27679700  0.58155081    -0.06700
C1709       C  0.93006926  0.26739879  0.59495473    -0.17900
C1710       C  0.93097315  0.24841088  0.59535719     0.10400
S1711       S  0.89555165  0.27669142  0.55195473    -0.32900
S1712       S  0.94465834  0.23826065  0.61291910    -0.32900
H1713       H  0.93050379  0.22710016  0.61923669     0.28500
H1714       H  0.88688196  0.28825380  0.56445097     0.28400
H1715       H  0.90430577  0.24003280  0.55856850     0.19000
H1716       H  0.93772924  0.27488926  0.60493401     0.19000
C1717       C  0.98755737  0.17911807  0.58458679    -0.06800
C1718       C  0.99548070  0.16216959  0.58115429    -0.17900
C1719       C  0.01431884  0.16010627  0.58030386     0.10400
C1720       C  0.02563319  0.17531376  0.58317343    -0.06700
C1721       C  0.01767260  0.19195506  0.58804251    -0.17900
C1722       C  0.99875606  0.19407825  0.58853740     0.10400
S1723       S  0.02299493  0.13783316  0.57503238    -0.32900
S1724       S  0.98899924  0.21590848  0.59403821    -0.32900
H1725       H  0.00531372  0.22574789  0.59390913     0.28500
H1726       H  0.03859671  0.13939596  0.58586875     0.28400
H1727       H  0.98689406  0.15059155  0.57815825     0.19000
H1728       H  0.02629485  0.20360672  0.59043271     0.19000
C1729       C  0.10312239  0.40113962  0.36453752    -0.06800
C1730       C  0.10969810  0.38402918  0.35926425    -0.17900
C1731       C  0.11103183  0.36961979  0.37170523     0.10400
C1732       C  0.10537227  0.37213488  0.38991670    -0.06700
C1733       C  0.10064486  0.38970303  0.39558313    -0.17900
C1734       C  0.09958246  0.40419150  0.38323348     0.10400
S1735       S  0.11947165  0.34826762  0.36328311    -0.32900
S1736       S  0.09273884  0.42589834  0.39221493    -0.32900
H1737       H  0.10486520  0.43588613  0.38129410     0.28500
H1738       H  0.12808885  0.34333338  0.37963485     0.28400
H1739       H  0.11297853  0.38151748  0.34510578     0.19000
H1740       H  0.09663776  0.39201151  0.40959530     0.19000
C1741       C  0.91831346  0.39505507  0.36226172    -0.06800
C1742       C  0.91526400  0.37723577  0.35622097    -0.17900
C1743       C  0.91566750  0.36238636  0.36826231     0.10400
C1744       C  0.91992324  0.36516147  0.38680752    -0.06700
C1745       C  0.92155536  0.38307591  0.39305628    -0.17900
C1746       C  0.92041090  0.39795539  0.38116872     0.10400
S1747       S  0.91057179  0.34034071  0.35909697    -0.32900
S1748       S  0.92186143  0.42022832  0.39110355    -0.32900
H1749       H  0.90875669  0.42795737  0.37951044     0.28500
H1750       H  0.90103213  0.33436308  0.37459667     0.28400
H1751       H  0.91309133  0.37471718  0.34183662     0.19000
H1752       H  0.92425611  0.38556720  0.40731184     0.19000
C1753       C  0.98913245  0.43291134  0.32191647    -0.06800
C1754       C  0.99848742  0.41709811  0.32708919    -0.17900
C1755       C  0.01750150  0.41657570  0.32762546     0.10400
C1756       C  0.02745763  0.43236449  0.32293841    -0.06700
C1757       C  0.01800465  0.44814378  0.31779291    -0.17900
C1758       C  0.99910307  0.44867716  0.31745092     0.10400
S1759       S  0.02857176  0.39548347  0.33379457    -0.32900
S1760       S  0.98867104  0.47021839  0.31215260    -0.32900
H1761       H  0.97645414  0.46943459  0.32684793     0.28500
H1762       H  0.01283237  0.38509742  0.33661608     0.28400
H1763       H  0.99084189  0.40506882  0.33052203     0.19000
H1764       H  0.02538268  0.46040585  0.31441323     0.19000
C1765       C  0.08896745  0.41846155  0.23118546    -0.06800
C1766       C  0.10251962  0.42929405  0.23900579    -0.17900
C1767       C  0.10441808  0.43076776  0.25785684     0.10400
C1768       C  0.09207261  0.42170807  0.26946319    -0.06700
C1769       C  0.07971028  0.40947019  0.26172683    -0.17900
C1770       C  0.07816938  0.40751809  0.24278172     0.10400
S1771       S  0.12278378  0.44450849  0.26612276    -0.32900
S1772       S  0.06174847  0.39170866  0.23388526    -0.32900
H1773       H  0.05656116  0.38394529  0.25061167     0.28500
H1774       H  0.12667946  0.43301276  0.28096262     0.28400
H1775       H  0.11150752  0.43720826  0.23031593     0.19000
H1776       H  0.07052544  0.40205641  0.27055421     0.19000
C1777       C  0.91734870  0.42292342  0.23093177    -0.06800
C1778       C  0.91012306  0.43820434  0.23973048    -0.17900
C1779       C  0.91013878  0.43969971  0.25869430     0.10400
C1780       C  0.91816854  0.42580122  0.26942637    -0.06700
C1781       C  0.92416955  0.40994506  0.26065342    -0.17900
C1782       C  0.92349222  0.40819112  0.24170087     0.10400
S1783       S  0.90045084  0.46010304  0.26805234    -0.32900
S1784       S  0.93065732  0.38684241  0.23218047    -0.32900
H1785       H  0.91735187  0.38680810  0.21849311     0.28500
H1786       H  0.88973892  0.45065219  0.28080069     0.28400
H1787       H  0.90495370  0.44955286  0.23170729     0.19000
H1788       H  0.92981923  0.39881209  0.26862928     0.19000
C1789       C  0.98300628  0.41763514  0.16712781    -0.06800
C1790       C  0.99250552  0.42922080  0.15522973    -0.17900
C1791       C  0.01142557  0.42998547  0.15522198     0.10400
C1792       C  0.02134188  0.41936192  0.16780573    -0.06700
C1793       C  0.01205550  0.40673481  0.17868883    -0.17900
C1794       C  0.99308421  0.40553476  0.17827844     0.10400
S1795       S  0.02204230  0.44488245  0.13883123    -0.32900
S1796       S  0.98271890  0.38896041  0.19302726    -0.32900
H1797       H  0.97140869  0.38213306  0.17928839     0.28500
H1798       H  0.03724341  0.43365778  0.13597939     0.28400
H1799       H  0.98514542  0.43817465  0.14613508     0.19000
H1800       H  0.01954196  0.39824586  0.18810546     0.19000
C1801       C  0.09990316  0.62029010  0.35857645    -0.06800
C1802       C  0.09727565  0.63829966  0.35275127    -0.17900
C1803       C  0.09672895  0.65275966  0.36511227     0.10400
C1804       C  0.09810908  0.64912733  0.38399316    -0.06700
C1805       C  0.10274357  0.63143907  0.38960768    -0.17900
C1806       C  0.10414973  0.61715779  0.37711561     0.10400
S1807       S  0.09391078  0.67560646  0.35640967    -0.32900
S1808       S  0.11108484  0.59532136  0.38583233    -0.32900
H1809       H  0.12199259  0.59122360  0.37065914     0.28500
H1810       H  0.09580747  0.67143762  0.33785841     0.28400
H1811       H  0.09473491  0.64100417  0.33848261     0.19000
H1812       H  0.10471470  0.62852478  0.40394199     0.19000
C1813       C  0.09813040  0.52644876  0.33514228    -0.06800
C1814       C  0.08824465  0.51694674  0.34847849    -0.17900
C1815       C  0.08853369  0.49798832  0.34938184     0.10400
C1816       C  0.09805275  0.48807025  0.33602286    -0.06700
C1817       C  0.10976499  0.49745034  0.32422297    -0.17900
C1818       C  0.11030588  0.51651849  0.32401458     0.10400
S1819       S  0.07625648  0.48724382  0.36772811    -0.32900
S1820       S  0.12608831  0.52716728  0.30865012    -0.32900
H1821       H  0.13177516  0.54007837  0.32146929     0.28500
H1822       H  0.08760238  0.47186677  0.36869682     0.28400
H1823       H  0.07969179  0.52428324  0.35792058     0.19000
H1824       H  0.11780992  0.48996616  0.31442731     0.19000
C1825       C  0.91191076  0.61744792  0.36503335    -0.06800
C1826       C  0.91178007  0.61206912  0.38338941    -0.17900
C1827       C  0.91175255  0.62481672  0.39742674     0.10400
C1828       C  0.91223904  0.64358212  0.39319430    -0.06700
C1829       C  0.91065460  0.64897603  0.37491232    -0.17900
C1830       C  0.91019949  0.63617859  0.36086892     0.10400
S1831       S  0.91159931  0.61609981  0.42037772    -0.32900
S1832       S  0.90790552  0.64479044  0.33801411    -0.32900
H1833       H  0.89634613  0.63072206  0.33240393     0.28500
H1834       H  0.90040131  0.62998455  0.42721890     0.28400
H1835       H  0.91255757  0.59779314  0.38692913     0.19000
H1836       H  0.91055001  0.66324457  0.37143083     0.19000
C1837       C  0.98722265  0.57749209  0.33198769    -0.06800
C1838       C  0.99612751  0.56473379  0.32098499    -0.17900
C1839       C  0.01500035  0.56365629  0.32020728     0.10400
C1840       C  0.02561095  0.57614485  0.33012541    -0.06700
C1841       C  0.01676155  0.58847965  0.34169840    -0.17900
C1842       C  0.99780842  0.58907348  0.34300621     0.10400
S1843       S  0.02446689  0.54575168  0.30649574    -0.32900
S1844       S  0.98817867  0.60470383  0.35916140    -0.32900
H1845       H  0.97592219  0.59193590  0.36638787     0.28500
H1846       H  0.03698929  0.54023738  0.31985359     0.28400
H1847       H  0.98830725  0.55539150  0.31278381     0.19000
H1848       H  0.02465212  0.59785799  0.34976438     0.19000
C1849       C  0.91901377  0.52488791  0.33889465    -0.06800
C1850       C  0.93153931  0.51549652  0.34985668    -0.17900
C1851       C  0.93259328  0.49653904  0.34986673     0.10400
C1852       C  0.92093366  0.48643846  0.33856052    -0.06700
C1853       C  0.90727313  0.49561713  0.32895109    -0.17900
C1854       C  0.90607962  0.51464370  0.32907634     0.10400
S1855       S  0.94960001  0.48611545  0.36412369    -0.32900
S1856       S  0.88829581  0.52485917  0.31574629    -0.32900
H1857       H  0.88402310  0.53800510  0.32891048     0.28500
H1858       H  0.93971673  0.47012160  0.36748760     0.28400
H1859       H  0.94130931  0.52298623  0.35788742     0.19000
H1860       H  0.89807135  0.48797670  0.32039252     0.19000
C1861       C  0.07857194  0.52368343  0.17484658    -0.06800
C1862       C  0.06414244  0.51470843  0.18344328    -0.17900
C1863       C  0.06267959  0.49585728  0.18327459     0.10400
C1864       C  0.07619130  0.48541022  0.17457221    -0.06700
C1865       C  0.09061344  0.49425423  0.16582535    -0.17900
C1866       C  0.09214740  0.51319664  0.16612259     0.10400
S1867       S  0.04278015  0.48604983  0.19362134    -0.32900
S1868       S  0.11217029  0.52291337  0.15596852    -0.32900
H1869       H  0.11561228  0.53452714  0.17070438     0.28500
H1870       H  0.04011754  0.47316413  0.17982887     0.28400
H1871       H  0.05339288  0.52257604  0.19007564     0.19000
H1872       H  0.10118992  0.48629605  0.15932093     0.19000
C1873       C  0.08615957  0.58946199  0.22954385    -0.06800
C1874       C  0.09717751  0.57665422  0.23850220    -0.17900
C1875       C  0.09824002  0.57580456  0.25749480     0.10400
C1876       C  0.08777930  0.58782383  0.26823319    -0.06700
C1877       C  0.07711937  0.60099350  0.25931411    -0.17900
C1878       C  0.07647012  0.60218618  0.24024481     0.10400
S1879       S  0.11207519  0.55800448  0.26702774    -0.32900
S1880       S  0.06296795  0.62022052  0.23059942    -0.32900
H1881       H  0.07598256  0.62492154  0.21738229     0.28500
H1882       H  0.12321376  0.57023979  0.27645142     0.28400
H1883       H  0.10468183  0.56674532  0.23067919     0.19000
H1884       H  0.06916118  0.61043884  0.26725210     0.19000
C1885       C  0.92846685  0.52412209  0.17866090    -0.06800
C1886       C  0.91806698  0.51548586  0.16527417    -0.17900
C1887       C  0.91777520  0.49653614  0.16375850     0.10400
C1888       C  0.92784347  0.48577878  0.17614932    -0.06700
C1889       C  0.93810017  0.49443114  0.18959475    -0.17900
C1890       C  0.93831900  0.51331101  0.19117947     0.10400
S1891       S  0.90501460  0.48712640  0.14520047    -0.32900
S1892       S  0.95076048  0.52251974  0.21006309    -0.32900
H1893       H  0.93691310  0.53468431  0.21512379     0.28500
H1894       H  0.91874881  0.47488873  0.14002471     0.28400
H1895       H  0.91051167  0.52356433  0.15552998     0.19000
H1896       H  0.94566920  0.48638764  0.19936901     0.19000
C1897       C  0.92108411  0.58761054  0.27358335    -0.06800
C1898       C  0.93084295  0.60122020  0.26440293    -0.17900
C1899       C  0.93082251  0.60252172  0.24538241     0.10400
C1900       C  0.92132094  0.58950468  0.23501086    -0.06700
C1901       C  0.91059089  0.57664133  0.24429738    -0.17900
C1902       C  0.91037559  0.57553988  0.26332018     0.10400
S1903       S  0.94375604  0.62071462  0.23539259    -0.23300
S1904       S  0.89732723  0.55745401  0.27343815    -0.32900
H1905       H  0.91181631  0.55082907  0.28398396     0.28500
H1906       H  0.92961621  0.62620956  0.22377452     0.28400
H1907       H  0.93879291  0.61079220  0.27210223     0.19000
H1908       H  0.90298840  0.56672500  0.23671863     0.19000
C1909       C  0.98409035  0.59171759  0.16687529    -0.06800
C1910       C  0.99386399  0.60411580  0.17749741    -0.17900
C1911       C  0.01289395  0.60499120  0.17666388     0.10400
C1912       C  0.02260923  0.59249334  0.16570228    -0.06700
C1913       C  0.01271500  0.58111053  0.15413938    -0.17900
C1914       C  0.99375245  0.58107005  0.15411870     0.10400
S1915       S  0.02389149  0.62163468  0.19063399    -0.32900
S1916       S  0.98277923  0.56725139  0.13725995    -0.32900
H1917       H  0.96863028  0.57973247  0.13408778     0.28500
H1918       H  0.03464179  0.62831114  0.17625763     0.28400
H1919       H  0.98668700  0.61281964  0.18699564     0.19000
H1920       H  0.01983545  0.57195756  0.14506982     0.19000
C1921       C  0.14448537  0.11708536  0.40369349    -0.06800
C1922       C  0.15085602  0.13496271  0.40178587    -0.17900
C1923       C  0.13880768  0.14973749  0.40095859     0.10400
C1924       C  0.11991309  0.14673898  0.40253064    -0.06700
C1925       C  0.11357761  0.12876677  0.40292973    -0.17900
C1926       C  0.12558464  0.11400316  0.40323709     0.10400
S1927       S  0.14845788  0.17203311  0.39810835    -0.32900
S1928       S  0.11587476  0.09155806  0.40324521    -0.32900
H1929       H  0.12994701  0.08366981  0.39299378     0.28500
H1930       H  0.13419478  0.17869309  0.38726753     0.28400
H1931       H  0.16524609  0.13753424  0.40172923     0.19000
H1932       H  0.09919434  0.12615613  0.40374698     0.19000
C1933       C  0.14213691  0.89692740  0.40509438    -0.06800
C1934       C  0.14685489  0.87868824  0.40196212    -0.17900
C1935       C  0.13377545  0.86493390  0.40161645     0.10400
C1936       C  0.11536434  0.86925927  0.40475548    -0.06700
C1937       C  0.11040190  0.88761976  0.40619729    -0.17900
C1938       C  0.12346959  0.90149448  0.40643784     0.10400
S1939       S  0.14155037  0.84210963  0.39742488    -0.32900
S1940       S  0.11589152  0.92464328  0.40970246    -0.32900
H1941       H  0.09716721  0.92133515  0.40852994     0.28500
H1942       H  0.12598773  0.83690584  0.38774760     0.28400
H1943       H  0.16099950  0.87493133  0.40038308     0.19000
H1944       H  0.09628459  0.89102268  0.40840987     0.19000
C1945       C  0.17014800  0.98628614  0.41051710    -0.06800
C1946       C  0.17846379  0.99561339  0.39604257    -0.17900
C1947       C  0.17794197  0.01468445  0.39494578     0.10400
C1948       C  0.16918538  0.02475233  0.40883968    -0.06700
C1949       C  0.15936464  0.01519129  0.42216922    -0.17900
C1950       C  0.15963280  0.99626150  0.42309625     0.10400
S1951       S  0.18932091  0.02520500  0.37596001    -0.32900
S1952       S  0.14667393  0.98576979  0.44112311    -0.32900
H1953       H  0.14195678  0.97030958  0.43102300     0.28500
H1954       H  0.17583188  0.03850131  0.37334122     0.28400
H1955       H  0.18620495  0.98809275  0.38603226     0.19000
H1956       H  0.15205329  0.02251792  0.43264612     0.19000
C1957       C  0.27437565  0.08751079  0.42242558    -0.06800
C1958       C  0.26641745  0.07363136  0.41217619    -0.17900
C1959       C  0.24762889  0.07288142  0.40939322     0.10400
C1960       C  0.23634188  0.08639320  0.41713333    -0.06700
C1961       C  0.24444300  0.10068768  0.42678193    -0.17900
C1962       C  0.26319563  0.10127627  0.42968357     0.10400
S1963       S  0.23849699  0.05374287  0.39715171    -0.32900
S1964       S  0.27173375  0.11895639  0.44415500    -0.32900
H1965       H  0.28298048  0.10730780  0.45435847     0.28500
H1966       H  0.25488739  0.04815577  0.38909704     0.28400
H1967       H  0.27497352  0.06299202  0.40672421     0.19000
H1968       H  0.23600515  0.11106126  0.43292445     0.19000
C1969       C  0.27533507  0.92448755  0.40887223    -0.06800
C1970       C  0.26608756  0.90966059  0.41645302    -0.17900
C1971       C  0.24718814  0.90843107  0.41563901     0.10400
C1972       C  0.23701180  0.92272381  0.40763437    -0.06700
C1973       C  0.24640548  0.93661202  0.39846519    -0.17900
C1974       C  0.26537476  0.93747450  0.39870999     0.10400
S1975       S  0.23697953  0.88846132  0.42546792    -0.32900
S1976       S  0.27599249  0.95560877  0.38605010    -0.32900
H1977       H  0.29113297  0.94520291  0.38077207     0.28500
H1978       H  0.22359703  0.88704064  0.41194111     0.28400
H1979       H  0.27358980  0.89921198  0.42379447     0.19000
H1980       H  0.23889567  0.94741510  0.39166798     0.19000
C1981       C  0.33472328  0.98823502  0.43110579    -0.06800
C1982       C  0.34356642  0.99809604  0.41735821    -0.17900
C1983       C  0.34438588  0.01708879  0.41780267     0.10400
C1984       C  0.33587888  0.02660956  0.43220256    -0.06700
C1985       C  0.32762973  0.01661134  0.44627870    -0.17900
C1986       C  0.32714952  0.99764222  0.44599412     0.10400
S1987       S  0.35652028  0.02815650  0.39958657    -0.32900
S1988       S  0.31697257  0.98629904  0.46525654    -0.32900
H1989       H  0.32944767  0.97180534  0.46556939     0.28500
H1990       H  0.36588621  0.04000513  0.41119567     0.28400
H1991       H  0.34959778  0.99098778  0.40600207     0.19000
H1992       H  0.32129945  0.02357576  0.45752387     0.19000
C1993       C  0.33213642  0.09658315  0.52523516    -0.06800
C1994       C  0.34911811  0.09640561  0.51652850    -0.17900
C1995       C  0.35053085  0.09757243  0.49749573     0.10400
C1996       C  0.33462972  0.09872484  0.48683225    -0.06700
C1997       C  0.31787314  0.10067692  0.49566405    -0.17900
C1998       C  0.31645573  0.09973134  0.51461357     0.10400
S1999       S  0.37290910  0.09729685  0.48763725    -0.32900
S2000       S  0.29410922  0.10213716  0.52429339    -0.32900
H2001       H  0.30005460  0.11142955  0.53983911     0.28500
H2002       H  0.36824399  0.10766173  0.47220880     0.28400
H2003       H  0.36132080  0.09446265  0.52449621     0.19000
H2004       H  0.30557667  0.10190475  0.48771552     0.19000
C2005       C  0.33125898  0.98459786  0.57334417    -0.06800
C2006       C  0.33512489  0.99274380  0.59008634    -0.17900
C2007       C  0.33650494  0.01156693  0.59170031     0.10400
C2008       C  0.33315015  0.02275245  0.57637349    -0.06700
C2009       C  0.32971283  0.01454828  0.55950489    -0.17900
C2010       C  0.32911673  0.99566569  0.55775624     0.10400
S2011       S  0.34322346  0.02021189  0.61353831    -0.32900
S2012       S  0.32637556  0.98665335  0.53517804    -0.32900
H2013       H  0.33919203  0.97264943  0.53752957     0.28500
H2014       H  0.35594360  0.03244630  0.60618564     0.28400
H2015       H  0.33719176  0.98437167  0.60206006     0.19000
H2016       H  0.32750318  0.02285360  0.54755670     0.19000
C2017       C  0.33398661  0.91703964  0.51811324    -0.06800
C2018       C  0.34909962  0.92456414  0.50922835    -0.17900
C2019       C  0.35013062  0.92571763  0.49018712     0.10400
C2020       C  0.33553941  0.91922718  0.47954912    -0.06700
C2021       C  0.32099816  0.91060150  0.48842589    -0.17900
C2022       C  0.32008832  0.90933402  0.50741188     0.10400
S2023       S  0.37002158  0.93587920  0.47997437    -0.32900
S2024       S  0.30002865  0.89916132  0.51696681    -0.32900
H2025       H  0.30986486  0.88681023  0.52779109     0.28500
H2026       H  0.37829889  0.94167751  0.49613871     0.28400
H2027       H  0.35998966  0.93015773  0.51735256     0.19000
H2028       H  0.30976316  0.90539609  0.48054222     0.19000
C2029       C  0.11377514  0.13710790  0.58844899    -0.06800
C2030       C  0.10910531  0.11931261  0.58360346    -0.17900
C2031       C  0.12188114  0.10525240  0.58384927     0.10400
C2032       C  0.14004543  0.10895003  0.58876855    -0.06700
C2033       C  0.14422826  0.12628774  0.59548101    -0.17900
C2034       C  0.13126310  0.14028307  0.59562118     0.10400
S2035       S  0.11413490  0.08310465  0.57704117    -0.32900
S2036       S  0.13800282  0.16188502  0.60478253    -0.32900
H2037       H  0.12077033  0.16614085  0.61183699     0.28500
H2038       H  0.12504534  0.07361957  0.58958268     0.28400
H2039       H  0.09562220  0.11645233  0.57858931     0.19000
H2040       H  0.15791419  0.12925459  0.59984802     0.19000
C2041       C  0.18622794  0.07890575  0.51699647    -0.06800
C2042       C  0.18989159  0.06265293  0.50771626    -0.17900
C2043       C  0.18809603  0.06139135  0.48884598     0.10400
C2044       C  0.18304975  0.07692984  0.47862989    -0.06700
C2045       C  0.17953956  0.09322755  0.48786323    -0.17900
C2046       C  0.18117624  0.09444394  0.50676131     0.10400
S2047       S  0.19159335  0.03929528  0.47897562    -0.32900
S2048       S  0.17678688  0.11632552  0.51671158    -0.32900
H2049       H  0.19268395  0.11609218  0.52725020     0.28500
H2050       H  0.17549453  0.03988227  0.46875000     0.28400
H2051       H  0.19351102  0.05052164  0.51527494     0.19000
H2052       H  0.17579038  0.10528468  0.48029645     0.19000
C2053       C  0.23608222  0.08376822  0.58949393    -0.06800
C2054       C  0.24522346  0.09871011  0.58192674    -0.17900
C2055       C  0.26405099  0.10045371  0.58320612     0.10400
C2056       C  0.27439470  0.08654688  0.59161063    -0.06700
C2057       C  0.26512591  0.07230762  0.60041960    -0.17900
C2058       C  0.24618077  0.07097989  0.59981185     0.10400
S2059       S  0.27387549  0.12041973  0.57301818    -0.32900
S2060       S  0.23596068  0.05243321  0.61218332    -0.32900
H2061       H  0.22178082  0.06312570  0.61924062     0.28500
H2062       H  0.28503966  0.12399119  0.58807087     0.28400
H2063       H  0.23774571  0.10891877  0.57444266     0.19000
H2064       H  0.27269349  0.06178558  0.60739978     0.19000
C2065       C  0.14057003  0.89367540  0.59208660    -0.06800
C2066       C  0.14584839  0.87537383  0.59333026    -0.17900
C2067       C  0.13304943  0.86137259  0.59362390     0.10400
C2068       C  0.11435218  0.86558206  0.59224977    -0.06700
C2069       C  0.10904754  0.88393022  0.59310169    -0.17900
C2070       C  0.12190479  0.89799389  0.59319696     0.10400
S2071       S  0.14176667  0.83851982  0.59469936    -0.32900
S2072       S  0.11410227  0.92125889  0.59422408    -0.32900
H2073       H  0.09584040  0.91739950  0.59816252     0.28500
H2074       H  0.12890175  0.83275602  0.60763932     0.28400
H2075       H  0.16003109  0.87183484  0.59310987     0.19000
H2076       H  0.09483994  0.88732053  0.59267028     0.19000
C2077       C  0.18199092  0.92850648  0.51647001    -0.06800
C2078       C  0.18583311  0.94491384  0.50742199    -0.17900
C2079       C  0.18572520  0.94618034  0.48841952     0.10400
C2080       C  0.18205028  0.93061588  0.47787378    -0.06700
C2081       C  0.17817181  0.91419238  0.48684293    -0.17900
C2082       C  0.17840402  0.91288137  0.50589470     0.10400
S2083       S  0.18931977  0.96834884  0.47858350    -0.32900
S2084       S  0.17492363  0.89068410  0.51567832    -0.32900
H2085       H  0.18935882  0.89219425  0.52805371     0.28500
H2086       H  0.17523447  0.96666309  0.46587093     0.28400
H2087       H  0.18841971  0.95705323  0.51520031     0.19000
H2088       H  0.17552916  0.90212432  0.47894843     0.19000
C2089       C  0.23392661  0.91972907  0.58552193    -0.06800
C2090       C  0.24319204  0.90601610  0.57601336    -0.17900
C2091       C  0.26216789  0.90528697  0.57550509     0.10400
C2092       C  0.27235889  0.91875998  0.58449992    -0.06700
C2093       C  0.26311491  0.93174957  0.59493381    -0.17900
C2094       C  0.24418908  0.93230424  0.59572118     0.10400
S2095       S  0.27237970  0.88811893  0.56146541    -0.32900
S2096       S  0.23424181  0.95058256  0.60850228    -0.32900
H2097       H  0.22314282  0.93895229  0.61886675     0.28500
H2098       H  0.28355678  0.88154905  0.57551396     0.28400
H2099       H  0.23558787  0.89617780  0.56819622     0.19000
H2100       H  0.27072802  0.94211399  0.60203567     0.19000
C2101       C  0.17058679  0.98370297  0.58646150    -0.06800
C2102       C  0.15782860  0.99310575  0.57579030    -0.17900
C2103       C  0.15746579  0.01211027  0.57505303     0.10400
C2104       C  0.17014661  0.02209170  0.58521711    -0.06700
C2105       C  0.18168509  0.01287362  0.59727692    -0.17900
C2106       C  0.18191352  0.99384962  0.59819663     0.10400
S2107       S  0.14098154  0.02345663  0.56079181    -0.32900
S2108       S  0.19770938  0.98361420  0.61381325    -0.32900
H2109       H  0.18495009  0.97126186  0.62085909     0.28500
H2110       H  0.13169341  0.00781262  0.55516625     0.28400
H2111       H  0.14865542  0.98552668  0.56724899     0.19000
H2112       H  0.19129061  0.02049833  0.60535322     0.19000
C2113       C  0.39500257  0.09661854  0.36783704    -0.06800
C2114       C  0.37681682  0.09719546  0.36222305    -0.17900
C2115       C  0.36251532  0.09827630  0.37484955     0.10400
C2116       C  0.36645345  0.09889580  0.39371300    -0.06700
C2117       C  0.38469287  0.10009288  0.39909735    -0.17900
C2118       C  0.39889868  0.09909840  0.38646265     0.10400
S2119       S  0.33948696  0.09818361  0.36645541    -0.32900
S2120       S  0.42166007  0.10076075  0.39510967    -0.32900
H2121       H  0.42839997  0.11034473  0.37994584     0.28500
H2122       H  0.34354869  0.09402944  0.34824395     0.28400
H2123       H  0.37375455  0.09579594  0.34793015     0.19000
H2124       H  0.38802524  0.10103726  0.41339176     0.19000
C2125       C  0.39004617  0.90893751  0.35848554    -0.06800
C2126       C  0.37203942  0.91235428  0.35321561    -0.17900
C2127       C  0.35813607  0.91387903  0.36612168     0.10400
C2128       C  0.36226233  0.91235193  0.38481906    -0.06700
C2129       C  0.37976433  0.90692157  0.38995376    -0.17900
C2130       C  0.39360467  0.90499259  0.37700724     0.10400
S2131       S  0.33551794  0.91826012  0.35789365    -0.32900
S2132       S  0.41559563  0.89812503  0.38516226    -0.32900
H2133       H  0.41997615  0.88802817  0.36955270     0.28500
H2134       H  0.32667377  0.90915407  0.37224559     0.28400
H2135       H  0.36888705  0.91488937  0.33907327     0.19000
H2136       H  0.38296681  0.90517005  0.40418423     0.19000
C2137       C  0.42926158  0.98275339  0.32842533    -0.06800
C2138       C  0.41300655  0.99246936  0.32654426    -0.17900
C2139       C  0.41274850  0.01147466  0.32699445     0.10400
C2140       C  0.42909571  0.02107842  0.32981866    -0.06700
C2141       C  0.44523097  0.01124371  0.33231724    -0.17900
C2142       C  0.44544722  0.99227261  0.33193330     0.10400
S2143       S  0.39138002  0.02256717  0.32268303    -0.32900
S2144       S  0.46658872  0.98096285  0.33687278    -0.32900
H2145       H  0.45865390  0.96658107  0.34669649     0.28500
H2146       H  0.39865290  0.03521559  0.31026775     0.28400
H2147       H  0.40048791  0.98520886  0.32387767     0.19000
H2148       H  0.45781892  0.01841686  0.33492413     0.19000
C2149       C  0.42393962  0.08907741  0.23670427    -0.06800
C2150       C  0.41010428  0.07931910  0.24548943    -0.17900
C2151       C  0.40897366  0.07869538  0.26451131     0.10400
C2152       C  0.42220944  0.08767310  0.27502455    -0.06700
C2153       C  0.43500122  0.09868958  0.26622614    -0.17900
C2154       C  0.43592190  0.09964652  0.24724011     0.10400
S2155       S  0.39036976  0.06632880  0.27452040    -0.32900
S2156       S  0.45263422  0.11431743  0.23680432    -0.32900
H2157       H  0.45708239  0.12406701  0.25257242     0.28500
H2158       H  0.38862012  0.07773659  0.28972588     0.28400
H2159       H  0.40047711  0.07160096  0.23752101     0.19000
H2160       H  0.44496557  0.10585631  0.27424370     0.19000
C2161       C  0.42304493  0.92062040  0.22802512    -0.06800
C2162       C  0.40913567  0.92994005  0.23718604    -0.17900
C2163       C  0.40759496  0.92922833  0.25622316     0.10400
C2164       C  0.42062574  0.91952218  0.26656051    -0.06700
C2165       C  0.43351835  0.90898632  0.25727779    -0.17900
C2166       C  0.43466886  0.90918378  0.23825794     0.10400
S2167       S  0.38867742  0.94090383  0.26642931    -0.32900
S2168       S  0.45138760  0.89459320  0.22793841    -0.32900
H2169       H  0.44073730  0.89050922  0.21264596     0.28500
H2170       H  0.38608499  0.92788442  0.28026771     0.28400
H2171       H  0.39976726  0.93835732  0.22955767     0.19000
H2172       H  0.44326377  0.90098572  0.26489940     0.19000
C2173       C  0.41814781  0.98967402  0.16889042    -0.06800
C2174       C  0.42618027  0.99927522  0.15442319    -0.17900
C2175       C  0.42674636  0.01828464  0.15438752     0.10400
C2176       C  0.41917133  0.02797531  0.16914398    -0.06700
C2177       C  0.40944351  0.01840677  0.18252929    -0.17900
C2178       C  0.40888577  0.99942612  0.18256652     0.10400
S2179       S  0.43810005  0.02913455  0.13551919    -0.32900
S2180       S  0.39687907  0.98858235  0.20101726    -0.32900
H2181       H  0.39102970  0.97371083  0.19064775     0.28500
H2182       H  0.42614986  0.04404640  0.13481779     0.28400
H2183       H  0.43299469  0.99205576  0.14378983     0.19000
H2184       H  0.40326573  0.02556560  0.19361234     0.19000
C2185       C  0.61703408  0.09915221  0.36694517    -0.06800
C2186       C  0.61070846  0.10209844  0.38474415    -0.17900
C2187       C  0.62263772  0.10229711  0.39970947     0.10400
C2188       C  0.64144367  0.09951573  0.39683061    -0.06700
C2189       C  0.64777469  0.09812872  0.37886371    -0.17900
C2190       C  0.63594769  0.09799256  0.36402658     0.10400
S2191       S  0.61363959  0.10592402  0.42228358    -0.32900
S2192       S  0.64588631  0.09597294  0.34170811    -0.32900
H2193       H  0.63291735  0.10702592  0.33301343     0.28500
H2194       H  0.59526242  0.10701703  0.41735038     0.28400
H2195       H  0.59617723  0.10330465  0.38704632     0.19000
H2196       H  0.66225774  0.09630463  0.37627760     0.19000
C2197       C  0.52430329  0.09495191  0.33535699    -0.06800
C2198       C  0.51573491  0.08618766  0.35007401    -0.17900
C2199       C  0.49686014  0.08464711  0.35111725     0.10400
C2200       C  0.48595979  0.09172493  0.33697934    -0.06700
C2201       C  0.49434059  0.10172093  0.32297007    -0.17900
C2202       C  0.51327023  0.10360737  0.32211366     0.10400
S2203       S  0.48763477  0.07322490  0.37078722    -0.32900
S2204       S  0.52231734  0.11646297  0.30329095    -0.32900
H2205       H  0.53421737  0.12651023  0.31425159     0.28500
H2206       H  0.47217794  0.08438990  0.37202833     0.28400
H2207       H  0.52379540  0.07991532  0.36064674     0.19000
H2208       H  0.48617974  0.10747918  0.31219099     0.19000
C2209       C  0.61335550  0.91489610  0.36205466    -0.06800
C2210       C  0.63141625  0.91334793  0.35607884    -0.17900
C2211       C  0.64589617  0.91272013  0.36845261     0.10400
C2212       C  0.64240953  0.91417857  0.38734236    -0.06700
C2213       C  0.62430570  0.91383810  0.39328447    -0.17900
C2214       C  0.60980737  0.91405049  0.38095916     0.10400
S2215       S  0.66840127  0.91023074  0.35923129    -0.32900
S2216       S  0.58691182  0.91365659  0.38976287    -0.32900
H2217       H  0.59137712  0.91002087  0.40800928     0.28500
H2218       H  0.67471157  0.89929188  0.37364519     0.28400
H2219       H  0.63437963  0.91336711  0.34162516     0.19000
H2220       H  0.62143747  0.91446864  0.40770083     0.19000
C2221       C  0.57404334  0.98918683  0.33065544    -0.06800
C2222       C  0.55995676  0.99900937  0.32235718    -0.17900
C2223       C  0.55965028  0.01800284  0.32248680     0.10400
C2224       C  0.57400222  0.02757751  0.33075762    -0.06700
C2225       C  0.58768515  0.01776115  0.33968549    -0.17900
C2226       C  0.58777161  0.99877688  0.33993953     0.10400
S2227       S  0.54035463  0.02912166  0.31230331    -0.32900
S2228       S  0.60550345  0.98771408  0.35272229    -0.32900
H2229       H  0.59418969  0.97410082  0.35994791     0.28500
H2230       H  0.53915436  0.04288179  0.32547125     0.28400
H2231       H  0.54911236  0.99181652  0.31548693     0.19000
H2232       H  0.59862898  0.02498257  0.34642458     0.19000
C2233       C  0.52148768  0.91470550  0.33055865    -0.06800
C2234       C  0.51193183  0.91998322  0.34626944    -0.17900
C2235       C  0.49295531  0.91887764  0.34723041     0.10400
C2236       C  0.48304214  0.91295222  0.33194571    -0.06700
C2237       C  0.49261740  0.90592555  0.31704487    -0.17900
C2238       C  0.51161338  0.90645241  0.31629498     0.10400
S2239       S  0.48215265  0.92530948  0.36826090    -0.32900
S2240       S  0.52225302  0.89680631  0.29649225    -0.32900
H2241       H  0.53661687  0.88887490  0.30630495     0.28500
H2242       H  0.46727159  0.91355590  0.36631499     0.28400
H2243       H  0.51920898  0.92566718  0.35770271     0.19000
H2244       H  0.48522736  0.90082412  0.30540318     0.19000
C2245       C  0.52757919  0.08484636  0.17992894    -0.06800
C2246       C  0.51939233  0.06778494  0.18219250    -0.17900
C2247       C  0.50056682  0.06575318  0.18114029     0.10400
C2248       C  0.48948941  0.08120011  0.17822252    -0.06700
C2249       C  0.49773846  0.09820521  0.17566073    -0.17900
C2250       C  0.51655000  0.10021707  0.17668967     0.10400
S2251       S  0.49173407  0.04300529  0.18296553    -0.32900
S2252       S  0.52543912  0.12294229  0.17493210    -0.32900
H2253       H  0.53814928  0.12067651  0.18901110     0.28500
H2254       H  0.47885223  0.04534157  0.16905535     0.28400
H2255       H  0.52772004  0.05589884  0.18434791     0.19000
H2256       H  0.48947957  0.11014527  0.17361738     0.19000
C2257       C  0.59500153  0.09577901  0.27482641    -0.06800
C2258       C  0.58539443  0.10957586  0.26572463    -0.17900
C2259       C  0.58498938  0.11048984  0.24657207     0.10400
C2260       C  0.59428309  0.09718751  0.23621760    -0.06700
C2261       C  0.60542398  0.08467380  0.24540416    -0.17900
C2262       C  0.60607309  0.08399986  0.26445099     0.10400
S2263       S  0.57243319  0.12860743  0.23565999    -0.32900
S2264       S  0.62112314  0.06756791  0.27467685    -0.32900
H2265       H  0.62495878  0.07815397  0.29007482     0.28500
H2266       H  0.56579953  0.13678892  0.25159255     0.28400
H2267       H  0.57732879  0.11896013  0.27358737     0.19000
H2268       H  0.61314518  0.07479934  0.23773884     0.19000
C2269       C  0.52899545  0.94030785  0.17256976    -0.06800
C2270       C  0.52044794  0.92337054  0.17412722    -0.17900
C2271       C  0.50159332  0.92189107  0.17487801     0.10400
C2272       C  0.49072922  0.93770381  0.17349025    -0.06700
C2273       C  0.49928121  0.95463549  0.17148475    -0.17900
C2274       C  0.51818157  0.95610249  0.17077865     0.10400
S2275       S  0.49249298  0.89951270  0.17875072    -0.32900
S2276       S  0.52750072  0.97838869  0.16681274    -0.32900
H2277       H  0.54096490  0.97235237  0.15466202     0.28500
H2278       H  0.48099334  0.90510712  0.19297050     0.28400
H2279       H  0.52855050  0.91114110  0.17558967     0.19000
H2280       H  0.49116811  0.96686802  0.17009183     0.19000
C2281       C  0.59220209  0.93045917  0.23181246    -0.06800
C2282       C  0.58329576  0.91564015  0.23990320    -0.17900
C2283       C  0.58203245  0.91384456  0.25886116     0.10400
C2284       C  0.58904916  0.92763843  0.27015692    -0.06700
C2285       C  0.59870432  0.94200427  0.26201926    -0.17900
C2286       C  0.60058255  0.94339817  0.24310623     0.10400
S2287       S  0.57000311  0.89444268  0.26759951    -0.32900
S2288       S  0.61186708  0.96319591  0.23422132    -0.32900
H2289       H  0.62416451  0.95307103  0.22369986     0.28500
H2290       H  0.58430658  0.88913933  0.27909973     0.28400
H2291       H  0.57690944  0.90560095  0.23138433     0.19000
H2292       H  0.60430293  0.95259673  0.27040138     0.19000
C2293       C  0.59953119  0.99506417  0.16874844    -0.06800
C2294       C  0.58933008  0.00464337  0.15572926    -0.17900
C2295       C  0.58849058  0.02362503  0.15560254     0.10400
C2296       C  0.59765456  0.03359931  0.16914946    -0.06700
C2297       C  0.60926653  0.02420752  0.18103527    -0.17900
C2298       C  0.61058167  0.00516859  0.18077911     0.10400
S2299       S  0.57523195  0.03424923  0.13792352    -0.32900
S2300       S  0.62624715  0.99473218  0.19641262    -0.32900
H2301       H  0.63216006  0.98152061  0.18395837     0.28500
H2302       H  0.58631312  0.04971754  0.13643383     0.28400
H2303       H  0.58123452  0.99725920  0.14587191     0.19000
H2304       H  0.61684376  0.03172126  0.19122308     0.19000
C2305       C  0.41652077  0.14581549  0.11723662    -0.06800
C2306       C  0.41353353  0.15083564  0.13543449    -0.17900
C2307       C  0.41289572  0.13786154  0.14939101     0.10400
C2308       C  0.41570947  0.11936427  0.14524938    -0.06700
C2309       C  0.41700410  0.11418084  0.12693995    -0.17900
C2310       C  0.41738876  0.12711332  0.11288798     0.10400
S2311       S  0.40866809  0.14586431  0.17213346    -0.32900
S2312       S  0.41947604  0.11929316  0.08968494    -0.32900
H2313       H  0.42068112  0.10059126  0.09350548     0.28500
H2314       H  0.39849531  0.13057352  0.17742303     0.28400
H2315       H  0.41229983  0.16502878  0.13896719     0.19000
H2316       H  0.41874493  0.10002196  0.12368397     0.19000
C2317       C  0.41867560  0.17666361  0.98830107    -0.06800
C2318       C  0.42860377  0.16346373  0.99793002    -0.17900
C2319       C  0.42901234  0.16310079  0.01694365     0.10400
C2320       C  0.41992822  0.17676316  0.02692377    -0.06700
C2321       C  0.40896877  0.18919836  0.01745610    -0.17900
C2322       C  0.40794756  0.18908756  0.99838827     0.10400
S2323       S  0.44140579  0.14479261  0.02758701    -0.32900
S2324       S  0.39348496  0.20578990  0.98792475    -0.32900
H2325       H  0.38472159  0.19301708  0.97684273     0.28500
H2326       H  0.42929589  0.14289400  0.04229167     0.28400
H2327       H  0.43646214  0.15339088  0.99055139     0.19000
H2328       H  0.40162709  0.19959024  0.02493037     0.19000
C2329       C  0.41974818  0.23970705  0.09502769    -0.06800
C2330       C  0.40597123  0.24841461  0.08511449    -0.17900
C2331       C  0.40471186  0.26742317  0.08450082     0.10400
C2332       C  0.41764201  0.27798631  0.09377711    -0.06700
C2333       C  0.43017527  0.26932098  0.10522847    -0.17900
C2334       C  0.43115846  0.25033742  0.10619750     0.10400
S2335       S  0.38666968  0.27803508  0.07167370    -0.32900
S2336       S  0.44747341  0.24064476  0.12169989    -0.32900
H2337       H  0.43652477  0.22574741  0.12653931     0.28500
H2338       H  0.37719468  0.26202305  0.06757271     0.28400
H2339       H  0.39685080  0.24039604  0.07698071     0.19000
H2340       H  0.43977654  0.27731625  0.11281213     0.19000
C2341       C  0.42261930  0.27673008  0.92081641    -0.06800
C2342       C  0.41142428  0.26765300  0.93336643    -0.17900
C2343       C  0.41039754  0.24869188  0.93396804     0.10400
C2344       C  0.42121422  0.23819859  0.92209755    -0.06700
C2345       C  0.43181488  0.24724986  0.90898307    -0.17900
C2346       C  0.43231886  0.26629117  0.90793194     0.10400
S2347       S  0.39659991  0.23881606  0.95158311    -0.32900
S2348       S  0.44674393  0.27631947  0.89088609    -0.32900
H2349       H  0.43282815  0.28732957  0.88376101     0.28500
H2350       H  0.38645710  0.22832899  0.93935590     0.28400
H2351       H  0.40375429  0.27540515  0.94325700     0.19000
H2352       H  0.44017117  0.23939693  0.89972264     0.19000
C2353       C  0.43081784  0.33274210  0.98640149    -0.06800
C2354       C  0.41394242  0.33423565  0.99519156    -0.17900
C2355       C  0.41252766  0.33375309  0.01416804     0.10400
C2356       C  0.42837276  0.33254864  0.02483135    -0.06700
C2357       C  0.44524278  0.33093385  0.01612312    -0.17900
C2358       C  0.44667721  0.33092364  0.99707845     0.10400
S2359       S  0.39005715  0.33351204  0.02384736    -0.32900
S2360       S  0.46894554  0.32935950  0.98685997    -0.32900
H2361       H  0.47858131  0.32539551  0.00288432     0.28500
H2362       H  0.39411309  0.32033885  0.03718313     0.28400
H2363       H  0.40167302  0.33516365  0.98723173     0.19000
H2364       H  0.45735036  0.32999329  0.02429599     0.19000
C2365       C  0.51913994  0.34566912  0.08933416    -0.06800
C2366       C  0.51087871  0.33315350  0.10115900    -0.17900
C2367       C  0.49197486  0.33204361  0.10270575     0.10400
C2368       C  0.48082157  0.34343636  0.09183060    -0.06700
C2369       C  0.48919949  0.35678017  0.08096546    -0.17900
C2370       C  0.50807990  0.35816876  0.07978410     0.10400
S2371       S  0.48317869  0.31521413  0.11820478    -0.32900
S2372       S  0.51712774  0.37609063  0.06567277    -0.32900
H2373       H  0.53188758  0.37973765  0.07717414     0.28500
H2374       H  0.47072970  0.32728760  0.12622339     0.28400
H2375       H  0.51917261  0.32362619  0.10873942     0.19000
H2376       H  0.48100521  0.36594078  0.07284630     0.19000
C2377       C  0.57552582  0.34005646  0.98251335    -0.06800
C2378       C  0.56001369  0.33350399  0.99148700    -0.17900
C2379       C  0.55870250  0.33355602  0.01043071     0.10400
C2380       C  0.57345931  0.33978471  0.02088643    -0.06700
C2381       C  0.58878775  0.34675435  0.01197260    -0.17900
C2382       C  0.58990938  0.34716692  0.99298756     0.10400
S2383       S  0.53755295  0.32611501  0.02025326    -0.32900
S2384       S  0.60992655  0.35725220  0.98319037    -0.32900
H2385       H  0.60021078  0.36799661  0.97066474     0.28500
H2386       H  0.53690523  0.33996207  0.03335928     0.28400
H2387       H  0.54874707  0.32833497  0.98372909     0.19000
H2388       H  0.60002980  0.35181892  0.01982559     0.19000
C2389       C  0.52267063  0.34437582  0.91124544    -0.06800
C2390       C  0.51341576  0.35795308  0.92094898    -0.17900
C2391       C  0.49450184  0.35808531  0.92239345     0.10400
C2392       C  0.48425626  0.34412237  0.91419097    -0.06700
C2393       C  0.49335162  0.33157838  0.90302704    -0.17900
C2394       C  0.51231693  0.33168800  0.90127863     0.10400
S2395       S  0.48447800  0.37618931  0.93543299    -0.32900
S2396       S  0.52236662  0.31489519  0.88663015    -0.32900
H2397       H  0.53561118  0.32676800  0.87963785     0.28500
H2398       H  0.46951258  0.37835542  0.92378730     0.28400
H2399       H  0.52098626  0.36815017  0.92828024     0.19000
H2400       H  0.48573915  0.32105760  0.89623270     0.19000
C2401       C  0.59874369  0.15412275  0.11591191    -0.06800
C2402       C  0.60344581  0.13618028  0.11148467    -0.17900
C2403       C  0.60395105  0.12233357  0.12472748     0.10400
C2404       C  0.59903902  0.12629034  0.14290657    -0.06700
C2405       C  0.59567284  0.14448197  0.14755990    -0.17900
C2406       C  0.59561162  0.15841816  0.13441743     0.10400
S2407       S  0.61078394  0.09975665  0.11805798    -0.32900
S2408       S  0.58981954  0.18118610  0.14148021    -0.32900
H2409       H  0.59290778  0.17845784  0.16016698     0.28500
H2410       H  0.61857102  0.10476539  0.10128901     0.28400
H2411       H  0.60622489  0.13284059  0.09734995     0.19000
H2412       H  0.59201955  0.14771181  0.16150555     0.19000
C2413       C  0.52611675  0.18788774  0.07669580    -0.06800
C2414       C  0.51787797  0.18516028  0.09374764    -0.17900
C2415       C  0.49905872  0.18579426  0.09585662     0.10400
C2416       C  0.48799076  0.18879657  0.08048876    -0.06700
C2417       C  0.49618502  0.19169468  0.06349138    -0.17900
C2418       C  0.51498285  0.19107617  0.06135517     0.10400
S2419       S  0.49018029  0.18363838  0.11861779    -0.32900
S2420       S  0.52364547  0.19377166  0.03857420    -0.32900
H2421       H  0.53546719  0.17879396  0.03986047     0.28500
H2422       H  0.47717495  0.19749991  0.11646868     0.28400
H2423       H  0.52619011  0.18304104  0.10572958     0.19000
H2424       H  0.48781546  0.19388188  0.05154178     0.19000
C2425       C  0.58826764  0.24502748  0.08737564    -0.06800
C2426       C  0.57398918  0.25331869  0.09691590    -0.17900
C2427       C  0.57225721  0.27218900  0.09781534     0.10400
C2428       C  0.58480256  0.28333982  0.08842216    -0.06700
C2429       C  0.59976133  0.27508335  0.07988833    -0.17900
C2430       C  0.60179499  0.25615908  0.07952744     0.10400
S2431       S  0.55285204  0.28091084  0.10988579    -0.32900
S2432       S  0.62099642  0.24715204  0.06740741    -0.32900
H2433       H  0.62654144  0.23612402  0.08206232     0.28500
H2434       H  0.56335108  0.29233487  0.12093564     0.28400
H2435       H  0.56364294  0.24497288  0.10329747     0.19000
H2436       H  0.60968943  0.28341424  0.07287350     0.19000
C2437       C  0.52509197  0.18579730  0.93248419    -0.06800
C2438       C  0.51664465  0.17071138  0.92452981    -0.17900
C2439       C  0.49779955  0.16858606  0.92499907     0.10400
C2440       C  0.48692630  0.18222168  0.93300338    -0.06700
C2441       C  0.49538807  0.19729825  0.94089311    -0.17900
C2442       C  0.51424331  0.19922614  0.94087690     0.10400
S2443       S  0.48866238  0.14785301  0.91594054    -0.32900
S2444       S  0.52394995  0.21938634  0.95086226    -0.32900
H2445       H  0.50788337  0.22642841  0.95840130     0.28500
H2446       H  0.47630817  0.14524513  0.93032192     0.28400
H2447       H  0.52486182  0.16016582  0.91826376     0.19000
H2448       H  0.48709363  0.20790021  0.94685993     0.19000
C2449       C  0.59015338  0.24455782  0.91791092    -0.06800
C2450       C  0.60061582  0.25414007  0.93052501    -0.17900
C2451       C  0.60050480  0.27315447  0.93082708     0.10400
C2452       C  0.58961992  0.28288579  0.91829514    -0.06700
C2453       C  0.58047044  0.27334655  0.90467683    -0.17900
C2454       C  0.58059372  0.25432874  0.90437351     0.10400
S2455       S  0.61415040  0.28418277  0.94782750    -0.32900
S2456       S  0.56781478  0.24333528  0.88672224    -0.32900
H2457       H  0.57880665  0.22772035  0.88590793     0.28500
H2458       H  0.61781799  0.29975001  0.93727810     0.28400
H2459       H  0.60815849  0.24678537  0.94083930     0.19000
H2460       H  0.57229881  0.28068500  0.89485056     0.19000
C2461       C  0.59704037  0.18083470  0.98295073    -0.06800
C2462       C  0.60619433  0.19490679  0.99191138    -0.17900
C2463       C  0.60718667  0.19551021  0.01097353     0.10400
C2464       C  0.59809261  0.18218339  0.02155750    -0.06700
C2465       C  0.59055483  0.16721740  0.01251307    -0.17900
C2466       C  0.59037730  0.16616655  0.99349576     0.10400
S2467       S  0.61969448  0.21400504  0.02075734    -0.32900
S2468       S  0.58133490  0.14576744  0.98361200    -0.32900
H2469       H  0.59370684  0.14553903  0.96901104     0.28500
H2470       H  0.62832960  0.20295836  0.03381247     0.28400
H2471       H  0.61200010  0.20594704  0.98408007     0.19000
H2472       H  0.58424596  0.15640425  0.02028164     0.19000
C2473       C  0.36031813  0.39528817  0.10214205    -0.06800
C2474       C  0.35534071  0.37688318  0.10240571    -0.17900
C2475       C  0.36844943  0.36304299  0.10201475     0.10400
C2476       C  0.38705758  0.36759718  0.10079217    -0.06700
C2477       C  0.39201317  0.38589325  0.10277319    -0.17900
C2478       C  0.37888726  0.39973611  0.10366032     0.10400
S2479       S  0.36050311  0.33992202  0.10274666    -0.32900
S2480       S  0.38605235  0.42301587  0.10645452    -0.32900
H2481       H  0.40477642  0.41954778  0.10744744     0.28500
H2482       H  0.37529350  0.33336116  0.11291956     0.28400
H2483       H  0.34112184  0.37320512  0.10192182     0.19000
H2484       H  0.40623156  0.38947794  0.10259244     0.19000
C2485       C  0.38958602  0.36677510  0.91379490    -0.06800
C2486       C  0.39344094  0.38521068  0.91059301    -0.17900
C2487       C  0.37964381  0.39832911  0.90990949     0.10400
C2488       C  0.36147020  0.39321622  0.91323306    -0.06700
C2489       C  0.35742155  0.37463211  0.91481272    -0.17900
C2490       C  0.37117918  0.36136268  0.91501075     0.10400
S2491       S  0.38623751  0.42137372  0.90492348    -0.32900
S2492       S  0.36477853  0.33790665  0.91847124    -0.32900
H2493       H  0.34622497  0.34010640  0.91465355     0.28500
H2494       H  0.37058158  0.42541476  0.89475716     0.28400
H2495       H  0.40730858  0.38952430  0.90899733     0.19000
H2496       H  0.34356572  0.37056116  0.91713965     0.19000
C2497       C  0.32164954  0.42713795  0.98761805    -0.06800
C2498       C  0.30567695  0.43202070  0.99679900    -0.17900
C2499       C  0.30465804  0.43174832  0.01579897     0.10400
C2500       C  0.32016095  0.42704598  0.02609177    -0.06700
C2501       C  0.33599039  0.42170856  0.01692211    -0.17900
C2502       C  0.33698688  0.42188674  0.99790650     0.10400
S2503       S  0.28297114  0.43674108  0.02599158    -0.32900
S2504       S  0.35855593  0.41645018  0.98772876    -0.32900
H2505       H  0.35804145  0.43088948  0.97512217     0.28500
H2506       H  0.28444548  0.42338426  0.03967620     0.28400
H2507       H  0.29368007  0.43573030  0.98906797     0.19000
H2508       H  0.34802679  0.41811811  0.02466345     0.19000
C2509       C  0.11137464  0.41015698  0.13813704    -0.06800
C2510       C  0.10514479  0.40946124  0.12010812    -0.17900
C2511       C  0.11726376  0.40860357  0.10543663     0.10400
C2512       C  0.13613982  0.40877050  0.10874211    -0.06700
C2513       C  0.14225672  0.40763504  0.12676089    -0.17900
C2514       C  0.13016542  0.40810326  0.14141871     0.10400
S2515       S  0.10782186  0.40775547  0.08287679    -0.32900
S2516       S  0.13972877  0.40664545  0.16391554    -0.32900
H2517       H  0.12555260  0.39598752  0.17103074     0.28500
H2518       H  0.12204075  0.39734813  0.07549392     0.28400
H2519       H  0.09071237  0.41049608  0.11731247     0.19000
H2520       H  0.15671386  0.40738642  0.12954967     0.19000
C2521       C  0.22870490  0.41984040  0.08719095    -0.06800
C2522       C  0.23637802  0.43367524  0.09783390    -0.17900
C2523       C  0.25518401  0.43502562  0.10030478     0.10400
C2524       C  0.26690964  0.42253784  0.09153334    -0.06700
C2525       C  0.25911462  0.40804429  0.08195338    -0.17900
C2526       C  0.24032738  0.40639516  0.07995859     0.10400
S2527       S  0.26314544  0.45334250  0.11431885    -0.32900
S2528       S  0.23221245  0.38683104  0.06789044    -0.32900
H2529       H  0.21776339  0.38364026  0.08000972     0.28500
H2530       H  0.27545783  0.44232306  0.12397058     0.28400
H2531       H  0.22773815  0.44388509  0.10387719     0.19000
H2532       H  0.26773580  0.39804394  0.07549931     0.19000
C2533       C  0.23058331  0.41509062  0.91449012    -0.06800
C2534       C  0.23910958  0.40455870  0.92790548    -0.17900
C2535       C  0.25790951  0.40495867  0.93021856     0.10400
C2536       C  0.26868833  0.41614778  0.91878443    -0.06700
C2537       C  0.26026342  0.42553314  0.90441803    -0.17900
C2538       C  0.24141904  0.42516682  0.90217032     0.10400
S2539       S  0.26699522  0.39142476  0.94855671    -0.32900
S2540       S  0.23208128  0.43843123  0.88374116    -0.32900
H2541       H  0.21744761  0.42668102  0.88049584     0.28500
H2542       H  0.28213669  0.38547096  0.93854743     0.28400
H2543       H  0.23098609  0.39675602  0.93742187     0.19000
H2544       H  0.26826439  0.43396408  0.89540543     0.19000
C2545       C  0.16700091  0.41552108  0.97880779    -0.06800
C2546       C  0.15545933  0.42781764  0.98771274    -0.17900
C2547       C  0.15411896  0.42831333  0.00672758     0.10400
C2548       C  0.16482839  0.41635601  0.01737933    -0.06700
C2549       C  0.17518406  0.40301002  0.00849546    -0.17900
C2550       C  0.17651870  0.40255286  0.98942464     0.10400
S2551       S  0.13848799  0.44424056  0.01702920    -0.32900
S2552       S  0.19169241  0.38606365  0.97968805    -0.32900
H2553       H  0.20128742  0.39896743  0.96930982     0.28500
H2554       H  0.13311368  0.45319620  0.00097911     0.28400
H2555       H  0.14768203  0.43737769  0.97969017     0.19000
H2556       H  0.18332510  0.39363036  0.01646072     0.19000
C2557       C  0.33370197  0.52424336  0.09109290    -0.06800
C2558       C  0.34799016  0.51388254  0.08376937    -0.17900
C2559       C  0.34816984  0.49490077  0.08496163     0.10400
C2560       C  0.33341050  0.48572220  0.09302020    -0.06700
C2561       C  0.31984172  0.49596371  0.10163129    -0.17900
C2562       C  0.31994610  0.51504193  0.10100085     0.10400
S2563       S  0.36764115  0.48312042  0.07594889    -0.32900
S2564       S  0.30150760  0.52659080  0.11212307    -0.32900
H2565       H  0.31298576  0.53863232  0.12139001     0.28500
H2566       H  0.36679633  0.46858337  0.08842820     0.28400
H2567       H  0.35900798  0.52057715  0.07667446     0.19000
H2568       H  0.30857052  0.48907821  0.10809757     0.19000
C2569       C  0.33407156  0.58452268  0.97958568    -0.06800
C2570       C  0.34690864  0.57355171  0.98846273    -0.17900
C2571       C  0.34794366  0.57302170  0.00747927     0.10400
C2572       C  0.33577774  0.58358618  0.01794594    -0.06700
C2573       C  0.32360432  0.59523411  0.00899736    -0.17900
C2574       C  0.32271875  0.59592059  0.99002504     0.10400
S2575       S  0.36512601  0.55870006  0.01746682    -0.32900
S2576       S  0.30689786  0.61175354  0.98001337    -0.32900
H2577       H  0.31822235  0.61651634  0.96532829     0.28500
H2578       H  0.36905023  0.57062933  0.03180851     0.28400
H2579       H  0.35585616  0.56497569  0.98057926     0.19000
H2580       H  0.31437319  0.60355147  0.01682276     0.19000
C2581       C  0.33101675  0.52324243  0.91832572    -0.06800
C2582       C  0.34305024  0.51402329  0.92988399    -0.17900
C2583       C  0.34333493  0.49497855  0.93103309     0.10400
C2584       C  0.33098243  0.48465859  0.92056016    -0.06700
C2585       C  0.31959058  0.49391115  0.90824398    -0.17900
C2586       C  0.31930834  0.51299777  0.90721685     0.10400
S2587       S  0.35948624  0.48439951  0.94625225    -0.32900
S2588       S  0.30251738  0.52344585  0.89280306    -0.32900
H2589       H  0.29748890  0.53683255  0.90544629     0.28500
H2590       H  0.37058527  0.49970386  0.94865542     0.28400
H2591       H  0.35200351  0.52183970  0.93836989     0.19000
H2592       H  0.31006476  0.48632803  0.90014530     0.19000
C2593       C  0.14370811  0.59330354  0.10941511    -0.06800
C2594       C  0.12568718  0.59661799  0.10415458    -0.17900
C2595       C  0.11159509  0.59791731  0.11696871     0.10400
C2596       C  0.11533725  0.59580428  0.13575104    -0.06700
C2597       C  0.13353142  0.59382178  0.14109804    -0.17900
C2598       C  0.14766943  0.59241019  0.12825965     0.10400
S2599       S  0.08910285  0.60191540  0.10832600    -0.32900
S2600       S  0.17060207  0.58931133  0.13632920    -0.32900
H2601       H  0.16619354  0.58530521  0.15452941     0.28500
H2602       H  0.08397204  0.61348292  0.12262543     0.28400
H2603       H  0.12236633  0.59753124  0.08982110     0.19000
H2604       H  0.13661617  0.59245194  0.15541071     0.19000
C2605       C  0.17636741  0.52100503  0.07475381    -0.06800
C2606       C  0.19267341  0.51128817  0.07286881    -0.17900
C2607       C  0.19297002  0.49233986  0.07302587     0.10400
C2608       C  0.17655295  0.48271345  0.07483157    -0.06700
C2609       C  0.16029300  0.49231273  0.07717424    -0.17900
C2610       C  0.16001387  0.51130277  0.07726765     0.10400
S2611       S  0.21478353  0.48133684  0.07134238    -0.32900
S2612       S  0.13842800  0.52215209  0.08099934    -0.32900
H2613       H  0.14532135  0.53509198  0.09316586     0.28500
H2614       H  0.21064362  0.46737448  0.08376768     0.28400
H2615       H  0.20533131  0.51848389  0.07109375     0.19000
H2616       H  0.14769549  0.48498133  0.07874872     0.19000
C2617       C  0.23503102  0.58809594  0.07270010    -0.06800
C2618       C  0.24353932  0.58897487  0.08975073    -0.17900
C2619       C  0.26255300  0.58793316  0.09132557     0.10400
C2620       C  0.27341076  0.58618188  0.07546092    -0.06700
C2621       C  0.26473989  0.58648076  0.05845967    -0.17900
C2622       C  0.24591998  0.58761369  0.05692029     0.10400
S2623       S  0.27191362  0.58796080  0.11390229    -0.32900
S2624       S  0.23657041  0.58854996  0.03429357    -0.32900
H2625       H  0.22165715  0.59947014  0.03906709     0.28500
H2626       H  0.28165996  0.57171902  0.11132903     0.28400
H2627       H  0.23529768  0.58935347  0.10199115     0.19000
H2628       H  0.27270113  0.58574821  0.04605634     0.19000
C2629       C  0.17613036  0.51933681  0.92098324    -0.06800
C2630       C  0.16782044  0.51032677  0.90643043    -0.17900
C2631       C  0.16764777  0.49131975  0.90556326     0.10400
C2632       C  0.17558976  0.48106251  0.91980600    -0.06700
C2633       C  0.18353056  0.49018501  0.93446197    -0.17900
C2634       C  0.18365724  0.50905000  0.93534185     0.10400
S2635       S  0.15789941  0.48120117  0.88559046    -0.32900
S2636       S  0.19280617  0.51902522  0.95567777    -0.32900
H2637       H  0.17914097  0.53229476  0.95714871     0.28500
H2638       H  0.17232067  0.46893435  0.88299044     0.28400
H2639       H  0.16205707  0.51811075  0.89535299     0.19000
H2640       H  0.18931740  0.48257601  0.94566378     0.19000
C2641       C  0.23462372  0.58794512  0.91097146    -0.06800
C2642       C  0.24461343  0.57773514  0.89825141    -0.17900
C2643       C  0.26365253  0.57843680  0.89756565     0.10400
C2644       C  0.27324876  0.58860285  0.91069241    -0.06700
C2645       C  0.26321112  0.59979828  0.92246003    -0.17900
C2646       C  0.24422002  0.60003101  0.92235208     0.10400
S2647       S  0.27474580  0.56577586  0.87985943    -0.32900
S2648       S  0.23325225  0.61571238  0.93755937    -0.32900
H2649       H  0.22155047  0.62254637  0.92404756     0.28500
H2650       H  0.28644022  0.58012296  0.87510778     0.28400
H2651       H  0.23758831  0.56893607  0.88889837     0.19000
H2652       H  0.27020780  0.60827502  0.93216734     0.19000
C2653       C  0.16928338  0.58625452  0.97491336    -0.06800
C2654       C  0.17973569  0.59942998  0.98385183    -0.17900
C2655       C  0.18027545  0.60036110  0.00303789     0.10400
C2656       C  0.17034448  0.58762701  0.01357799    -0.06700
C2657       C  0.15879228  0.57552280  0.00449721    -0.17900
C2658       C  0.15786143  0.57498429  0.98549201     0.10400
S2659       S  0.19453424  0.61714728  0.01362580    -0.32900
S2660       S  0.14171141  0.55955485  0.97565909    -0.32900
H2661       H  0.13739837  0.57098583  0.96088182     0.28500
H2662       H  0.20118413  0.62515109  0.99754268     0.28400
H2663       H  0.18818446  0.60830927  0.97585603     0.19000
H2664       H  0.15059124  0.56615857  0.01223852     0.19000
C2665       C  0.86366004  0.41061356  0.11218320    -0.06800
C2666       C  0.88167174  0.41245240  0.10618509    -0.17900
C2667       C  0.89622844  0.41186585  0.11831600     0.10400
C2668       C  0.89290245  0.41001518  0.13716633    -0.06700
C2669       C  0.87514921  0.40626970  0.14301272    -0.17900
C2670       C  0.86050296  0.40639650  0.13076405     0.10400
S2671       S  0.91867523  0.41395250  0.10880839    -0.32900
S2672       S  0.83797011  0.40205346  0.13942241    -0.32900
H2673       H  0.84304403  0.39721003  0.15722815     0.28500
H2674       H  0.92685173  0.40235814  0.12168398     0.28400
H2675       H  0.88449244  0.41498027  0.09194905     0.19000
H2676       H  0.87256327  0.40445445  0.15737929     0.19000
C2677       C  0.83334242  0.42008054  0.98295701    -0.06800
C2678       C  0.84633968  0.42979573  0.99283803    -0.17900
C2679       C  0.84656290  0.42956524  0.01191718     0.10400
C2680       C  0.83324954  0.41961079  0.02156574    -0.06700
C2681       C  0.82111026  0.40875909  0.01173004    -0.17900
C2682       C  0.82088917  0.40901135  0.99261569     0.10400
S2683       S  0.86405650  0.44200833  0.02367679    -0.32900
S2684       S  0.80336349  0.39619541  0.98153820    -0.32900
H2685       H  0.79718945  0.41098627  0.97103473     0.28500
H2686       H  0.87394653  0.44742123  0.00821262     0.28400
H2687       H  0.85610093  0.43798668  0.98554875     0.19000
H2688       H  0.81090786  0.40098120  0.01894418     0.19000
C2689       C  0.89233000  0.59881073  0.14157223    -0.06800
C2690       C  0.89759499  0.59800972  0.12319928    -0.17900
C2691       C  0.88478828  0.59802304  0.10914711     0.10400
C2692       C  0.86606056  0.59812209  0.11334196    -0.06700
C2693       C  0.86082617  0.60071613  0.13154725    -0.17900
C2694       C  0.87370564  0.60146430  0.14558003     0.10400
S2695       S  0.89334997  0.59760447  0.08617913    -0.32900
S2696       S  0.86533229  0.60539712  0.16824884    -0.32900
H2697       H  0.87963457  0.61706431  0.17297597     0.28500
H2698       H  0.87959544  0.60888198  0.07913496     0.28400
H2699       H  0.91174589  0.59669077  0.11970253     0.19000
H2700       H  0.84661282  0.60143951  0.13500578     0.19000
C2701       C  0.82347731  0.52333633  0.08235674    -0.06800
C2702       C  0.80964156  0.51457862  0.07269582    -0.17900
C2703       C  0.80835159  0.49565877  0.07219720     0.10400
C2704       C  0.82166964  0.48488569  0.08096361    -0.06700
C2705       C  0.83511955  0.49359372  0.09118697    -0.17900
C2706       C  0.83598104  0.51254601  0.09228507     0.10400
S2707       S  0.78913760  0.48634152  0.06040915    -0.32900
S2708       S  0.85338537  0.52186432  0.10658556    -0.32900
H2709       H  0.84132432  0.53339958  0.11589313     0.28500
H2710       H  0.78479935  0.47404924  0.07447491     0.28400
H2711       H  0.79961403  0.52254054  0.06538827     0.19000
H2712       H  0.84519368  0.48557486  0.09836906     0.19000
C2713       C  0.82746796  0.52730341  0.92420942    -0.06800
C2714       C  0.81200041  0.51797193  0.93028928    -0.17900
C2715       C  0.81139907  0.49900616  0.93076121     0.10400
C2716       C  0.82680366  0.48882635  0.92550993    -0.06700
C2717       C  0.84213785  0.49807515  0.91896673    -0.17900
C2718       C  0.84256014  0.51710566  0.91804149     0.10400
S2719       S  0.79027571  0.48874335  0.93759969    -0.32900
S2720       S  0.86256666  0.52736862  0.90841415    -0.32900
H2721       H  0.85287031  0.53993398  0.89769522     0.28500
H2722       H  0.79047387  0.47566266  0.92371694     0.28400
H2723       H  0.80021043  0.52548919  0.93477394     0.19000
H2724       H  0.85386962  0.49046302  0.91456993     0.19000
C2725       C  0.83796174  0.59055482  0.98367262    -0.06800
C2726       C  0.83170196  0.60566286  0.99347951    -0.17900
C2727       C  0.83222507  0.60590284  0.01264320     0.10400
C2728       C  0.83842744  0.59036761  0.02234440    -0.06700
C2729       C  0.84616611  0.57608622  0.01235167    -0.17900
C2730       C  0.84641441  0.57622539  0.99333520     0.10400
S2731       S  0.82402400  0.62602673  0.02377282    -0.32900
S2732       S  0.85779494  0.55762738  0.98218622    -0.32900
H2733       H  0.86380993  0.56799941  0.96722476     0.28500
H2734       H  0.83903560  0.62712173  0.03549131     0.28400
H2735       H  0.82570527  0.61703298  0.98624255     0.19000
H2736       H  0.85179861  0.56441399  0.01940475     0.19000
C2737       C  0.73450940  0.59450307  0.08805856    -0.06800
C2738       C  0.74366948  0.60316426  0.07368104    -0.17900
C2739       C  0.76260738  0.60358565  0.07274929     0.10400
C2740       C  0.77301241  0.59445894  0.08617468    -0.06700
C2741       C  0.76388528  0.58714602  0.10135278    -0.17900
C2742       C  0.74489169  0.58742433  0.10264242     0.10400
S2743       S  0.77238991  0.61536602  0.05357356    -0.32900
S2744       S  0.73484595  0.57742828  0.12263232    -0.32900
H2745       H  0.72328852  0.59233761  0.12572605     0.28500
H2746       H  0.78544398  0.62437560  0.06412027     0.28400
H2747       H  0.73598291  0.60924034  0.06265445     0.19000
H2748       H  0.77157461  0.58052530  0.11209776     0.19000
C2749       C  0.67453875  0.58025128  0.98496507    -0.06800
C2750       C  0.66678499  0.59475562  0.99457655    -0.17900
C2751       C  0.66617448  0.59479014  0.01358201     0.10400
C2752       C  0.67383946  0.58011388  0.02341769    -0.06700
C2753       C  0.68066679  0.56516651  0.01381601    -0.17900
C2754       C  0.68092065  0.56495010  0.99480695     0.10400
S2755       S  0.65524516  0.61385822  0.02435169    -0.32900
S2756       S  0.68937012  0.54465404  0.98407866    -0.32900
H2757       H  0.67586446  0.54438769  0.97059899     0.28500
H2758       H  0.64694184  0.60341669  0.03810322     0.28400
H2759       H  0.66139817  0.60641393  0.98722058     0.19000
H2760       H  0.68623441  0.55360714  0.02120209     0.19000
C2761       C  0.73416175  0.59867916  0.91984748    -0.06800
C2762       C  0.74342121  0.60842286  0.93336138    -0.17900
C2763       C  0.76248549  0.60917101  0.93387166     0.10400
C2764       C  0.77273553  0.59939931  0.92085850    -0.06700
C2765       C  0.76344613  0.59108631  0.90645128    -0.17900
C2766       C  0.74447733  0.59082529  0.90563603     0.10400
S2767       S  0.77326023  0.62212619  0.95162447    -0.32900
S2768       S  0.73449715  0.57901482  0.88678056    -0.32900
H2769       H  0.72282863  0.59349966  0.88230348     0.28500
H2770       H  0.75748916  0.63052615  0.95835693     0.28400
H2771       H  0.73567888  0.61492532  0.94402140     0.19000
H2772       H  0.77102391  0.58398861  0.89598108     0.19000
C2773       C  0.63991782  0.39874176  0.09914973    -0.06800
C2774       C  0.62189764  0.40491203  0.09967547    -0.17900
C2775       C  0.60733472  0.39283854  0.09886607     0.10400
C2776       C  0.61071142  0.37396346  0.09752235    -0.06700
C2777       C  0.62867335  0.36771601  0.09909808    -0.17900
C2778       C  0.64330962  0.37981835  0.09974053     0.10400
S2779       S  0.58497151  0.40268840  0.09840628    -0.32900
S2780       S  0.66607737  0.37066351  0.10057109    -0.32900
H2781       H  0.66159107  0.35251953  0.09675980     0.28500
H2782       H  0.57769144  0.38993683  0.11070200     0.28400
H2783       H  0.61904972  0.41931688  0.09959659     0.19000
H2784       H  0.63135563  0.35332061  0.09874780     0.19000
C2785       C  0.67190711  0.48965552  0.09764033    -0.06800
C2786       C  0.68735574  0.49827016  0.10467049    -0.17900
C2787       C  0.68874795  0.51724332  0.10491728     0.10400
C2788       C  0.67451958  0.52794973  0.09778644    -0.06700
C2789       C  0.65835645  0.51945964  0.09262246    -0.17900
C2790       C  0.65681851  0.50051177  0.09263221     0.10400
S2791       S  0.70917943  0.52696109  0.11406703    -0.32900
S2792       S  0.63545357  0.49119305  0.08544726    -0.32900
H2793       H  0.63582852  0.47672723  0.09802344     0.28500
H2794       H  0.70105401  0.54329290  0.11974368     0.28400
H2795       H  0.69883602  0.49024204  0.10909537     0.19000
H2796       H  0.64720377  0.52756454  0.08752317     0.19000
C2797       C  0.73131130  0.42060341  0.08931632    -0.06800
C2798       C  0.73967455  0.41051814  0.07547262    -0.17900
C2799       C  0.75852839  0.40920519  0.07412787     0.10400
C2800       C  0.76949157  0.41798243  0.08713948    -0.06700
C2801       C  0.76106990  0.42678749  0.10182492    -0.17900
C2802       C  0.74219920  0.42798661  0.10320741     0.10400
S2803       S  0.76760057  0.39794132  0.05440762    -0.32900
S2804       S  0.73301715  0.44062501  0.12199658    -0.32900
H2805       H  0.72130435  0.42652138  0.12737307     0.28500
H2806       H  0.77786332  0.41304925  0.04875983     0.28400
H2807       H  0.73140028  0.40454012  0.06476716     0.19000
H2808       H  0.76932214  0.43345916  0.11204836     0.19000
C2809       C  0.64275548  0.40101963  0.91428860    -0.06800
C2810       C  0.62495160  0.40625731  0.91003698    -0.17900
C2811       C  0.61115116  0.39336790  0.90817294     0.10400
C2812       C  0.61503421  0.37474596  0.91095665    -0.06700
C2813       C  0.63309139  0.36941770  0.91392996    -0.17900
C2814       C  0.64686133  0.38230932  0.91597383     0.10400
S2815       S  0.58884113  0.40163173  0.90251476    -0.32900
S2816       S  0.66878874  0.37402643  0.92298590    -0.32900
H2817       H  0.67051000  0.38641068  0.93740137     0.28500
H2818       H  0.58406586  0.38634750  0.89217213     0.28400
H2819       H  0.62169195  0.42048345  0.90851370     0.19000
H2820       H  0.63625408  0.35529371  0.91629592     0.19000
C2821       C  0.67831694  0.49276311  0.91544177    -0.06800
C2822       C  0.66146276  0.50146445  0.91717753    -0.17900
C2823       C  0.66009293  0.52044815  0.91687144     0.10400
C2824       C  0.67585757  0.53107045  0.91457676    -0.06700
C2825       C  0.69248450  0.52232758  0.91129891    -0.17900
C2826       C  0.69388230  0.50333280  0.91176503     0.10400
S2827       S  0.63793061  0.53027898  0.92013975    -0.32900
S2828       S  0.71599182  0.49346226  0.90811018    -0.32900
H2829       H  0.70960462  0.47732475  0.90024749     0.28500
H2830       H  0.64127121  0.54596011  0.90966226     0.28400
H2831       H  0.64946683  0.49351921  0.91984444     0.19000
H2832       H  0.70460295  0.53028972  0.90943354     0.19000
C2833       C  0.67169287  0.43721927  0.98727477    -0.06800
C2834       C  0.67084414  0.45376699  0.99669509    -0.17900
C2835       C  0.67037462  0.45420949  0.01571280     0.10400
C2836       C  0.67139471  0.43779608  0.02567494    -0.06700
C2837       C  0.67118056  0.42125378  0.01631479    -0.17900
C2838       C  0.67097798  0.42077531  0.99731201     0.10400
S2839       S  0.66799176  0.47608197  0.02639958    -0.32900
S2840       S  0.66944458  0.39873718  0.98686799    -0.32900
H2841       H  0.65693113  0.40435634  0.97354335     0.28500
H2842       H  0.65683649  0.46982231  0.04064938     0.28400
H2843       H  0.67080214  0.46646424  0.98925029     0.19000
H2844       H  0.67143030  0.40860117  0.02382561     0.19000
C2845       C  0.73361331  0.42457810  0.92020417    -0.06800
C2846       C  0.74286017  0.43512115  0.90726180    -0.17900
C2847       C  0.76182945  0.43450574  0.90586281     0.10400
C2848       C  0.77189019  0.42350902  0.91807964    -0.06700
C2849       C  0.76248812  0.41165825  0.92979045    -0.17900
C2850       C  0.74349832  0.41184568  0.93069998     0.10400
S2851       S  0.77280646  0.44806161  0.88851107    -0.32900
S2852       S  0.73270358  0.39549247  0.94547084    -0.32900
H2853       H  0.71722694  0.39341101  0.93452045     0.28500
H2854       H  0.75708437  0.45226707  0.87853697     0.28400
H2855       H  0.73533467  0.44452973  0.89890230     0.19000
H2856       H  0.76990419  0.40269617  0.93872037     0.19000
C2857       C  0.91179228  0.39490997  0.63832459    -0.06800
C2858       C  0.91240816  0.40093223  0.62017976    -0.17900
C2859       C  0.91293363  0.38862562  0.60572908     0.10400
C2860       C  0.91270131  0.36974407  0.60932962    -0.06700
C2861       C  0.91015514  0.36377400  0.62734430    -0.17900
C2862       C  0.90985314  0.37612349  0.64188327     0.10400
S2863       S  0.91466226  0.39798192  0.58309078    -0.32900
S2864       S  0.90736614  0.36762892  0.66485332    -0.32900
H2865       H  0.90927006  0.34908260  0.66074767     0.28500
H2866       H  0.90468605  0.38405334  0.57477832     0.28400
H2867       H  0.91364465  0.41523618  0.61722867     0.19000
H2868       H  0.90962301  0.34940862  0.63014078     0.19000
C2869       C  0.09852632  0.39055183  0.63744125    -0.06800
C2870       C  0.09954237  0.39604945  0.61915637    -0.17900
C2871       C  0.09994434  0.38334704  0.60500460     0.10400
C2872       C  0.09852993  0.36455002  0.60901670    -0.06700
C2873       C  0.09938787  0.35905561  0.62733871    -0.17900
C2874       C  0.09983872  0.37176921  0.64148463     0.10400
S2875       S  0.10198906  0.39212616  0.58218419    -0.32900
S2876       S  0.10202633  0.36311592  0.66435110    -0.32900
H2877       H  0.11260216  0.37773266  0.67049205     0.28500
H2878       H  0.11355607  0.37810370  0.57627515     0.28400
H2879       H  0.09927647  0.41039724  0.61575594     0.19000
H2880       H  0.09910553  0.34471627  0.63076935     0.19000
C2881       C  0.02404748  0.42938338  0.67407749    -0.06800
C2882       C  0.01492911  0.43084200  0.65737577    -0.17900
C2883       C  0.99600623  0.43235897  0.65666665     0.10400
C2884       C  0.98587548  0.43207126  0.67299025    -0.06700
C2885       C  0.99496931  0.43039119  0.68962827    -0.17900
C2886       C  0.01386078  0.42879254  0.69038290     0.10400
S2887       S  0.98576026  0.43551290  0.63463826    -0.32900
S2888       S  0.02452561  0.42494864  0.71220956    -0.32900
H2889       H  0.00856347  0.42336571  0.72258476     0.28500
H2890       H  0.97252584  0.44792563  0.64061616     0.28400
H2891       H  0.02260224  0.43138147  0.64484495     0.19000
H2892       H  0.98715828  0.42986861  0.70207059     0.19000
C2893       C  0.09448560  0.61479187  0.63440694    -0.06800
C2894       C  0.09424876  0.63299371  0.63998435    -0.17900
C2895       C  0.09476109  0.64728665  0.62738211     0.10400
C2896       C  0.09504746  0.64344729  0.60849099    -0.06700
C2897       C  0.09660769  0.62524203  0.60303151    -0.17900
C2898       C  0.09666506  0.61098626  0.61570518     0.10400
S2899       S  0.09397777  0.66994827  0.63650036    -0.32900
S2900       S  0.09939400  0.58828836  0.60706621    -0.32900
H2901       H  0.11000928  0.58222885  0.62178406     0.28500
H2902       H  0.10838202  0.67618369  0.62557487     0.28400
H2903       H  0.09284763  0.63619271  0.65429766     0.19000
H2904       H  0.09728767  0.62197434  0.58867318     0.19000
C2905       C  0.08984557  0.52276555  0.66648480    -0.06800
C2906       C  0.09648268  0.51389032  0.68208457    -0.17900
C2907       C  0.09609509  0.49490764  0.68368583     0.10400
C2908       C  0.08963816  0.48430746  0.66908616    -0.06700
C2909       C  0.08398146  0.49314870  0.65309153    -0.17900
C2910       C  0.08407681  0.51218641  0.65158370     0.10400
S2911       S  0.10223210  0.48532310  0.70542087    -0.32900
S2912       S  0.07682845  0.52264407  0.63050380    -0.32900
H2913       H  0.07431268  0.50653264  0.62064330     0.28500
H2914       H  0.08700704  0.47389012  0.70652291     0.28400
H2915       H  0.10072492  0.52176515  0.69363122     0.19000
H2916       H  0.07918279  0.48511980  0.64190670     0.19000
C2917       C  0.90948399  0.62080372  0.63882807    -0.06800
C2918       C  0.91161019  0.61548306  0.62066459    -0.17900
C2919       C  0.91255840  0.62827180  0.60659630     0.10400
C2920       C  0.91122292  0.64699921  0.61059291    -0.06700
C2921       C  0.90743656  0.65226862  0.62854871    -0.17900
C2922       C  0.90663428  0.63940820  0.64269403     0.10400
S2923       S  0.91625761  0.61970463  0.58395758    -0.32900
S2924       S  0.90254373  0.64769973  0.66535967    -0.32900
H2925       H  0.89364020  0.63195531  0.67152797     0.28500
H2926       H  0.90563471  0.63307951  0.57532252     0.28400
H2927       H  0.91369348  0.60130863  0.61746170     0.19000
H2928       H  0.90615902  0.66651538  0.63177588     0.19000
C2929       C  0.98230872  0.57783076  0.67280008    -0.06800
C2930       C  0.99152750  0.59010389  0.66144808    -0.17900
C2931       C  0.01041343  0.58996969  0.66010201     0.10400
C2932       C  0.02058776  0.57768736  0.67088936    -0.06700
C2933       C  0.01133171  0.56520107  0.68201121    -0.17900
C2934       C  0.99242310  0.56488946  0.68282621     0.10400
S2935       S  0.02045934  0.60547868  0.64397563    -0.32900
S2936       S  0.98219351  0.54719246  0.69638148    -0.32900
H2937       H  0.96924314  0.54266088  0.68313748     0.28500
H2938       H  0.03170543  0.59215349  0.63614958     0.28400
H2939       H  0.98394626  0.59990426  0.65342463     0.19000
H2940       H  0.01886890  0.55544720  0.69011645     0.19000
C2941       C  0.91665401  0.52637650  0.66666648    -0.06800
C2942       C  0.92849836  0.51745127  0.65463770    -0.17900
C2943       C  0.93015090  0.49843248  0.65443007     0.10400
C2944       C  0.91973691  0.48779567  0.66672092    -0.06700
C2945       C  0.90699474  0.49666779  0.67784769    -0.17900
C2946       C  0.90513581  0.51564197  0.67775889     0.10400
S2947       S  0.94624673  0.48834494  0.63883678    -0.32900
S2948       S  0.88806121  0.52514974  0.69245985    -0.32900
H2949       H  0.88163407  0.53743701  0.67922899     0.28500
H2950       H  0.94997873  0.50408685  0.62859639     0.28400
H2951       H  0.93719622  0.52546693  0.64589258     0.19000
H2952       H  0.89858803  0.48879595  0.68702386     0.19000
C2953       C  0.11663955  0.59542691  0.85328145    -0.06800
C2954       C  0.11174923  0.59872377  0.87143192    -0.17900
C2955       C  0.12456497  0.59766153  0.88556265     0.10400
C2956       C  0.14288426  0.59340724  0.88141514    -0.06700
C2957       C  0.14793382  0.59179181  0.86303844    -0.17900
C2958       C  0.13515747  0.59285776  0.84903621     0.10400
S2959       S  0.11682783  0.60047943  0.90872856    -0.32900
S2960       S  0.14338543  0.59032005  0.82606975    -0.32900
H2961       H  0.13033855  0.60190159  0.81822195     0.28500
H2962       H  0.09882764  0.60535335  0.90471129     0.28400
H2963       H  0.09760086  0.60079356  0.87470270     0.19000
H2964       H  0.16191862  0.58901470  0.85949349     0.19000
C2965       C  0.08610058  0.59154892  0.76474999    -0.06800
C2966       C  0.07307917  0.60181171  0.75535397    -0.17900
C2967       C  0.07251720  0.60194353  0.73633269     0.10400
C2968       C  0.08486456  0.59103466  0.72640429    -0.06700
C2969       C  0.09881074  0.58206886  0.73579729    -0.17900
C2970       C  0.09973457  0.58247126  0.75477151     0.10400
S2971       S  0.05568252  0.61618417  0.72563363    -0.32900
S2972       S  0.11854109  0.57103322  0.76548929    -0.32900
H2973       H  0.11959884  0.58306128  0.78026817     0.28500
H2974       H  0.06685707  0.62113697  0.71089027     0.28400
H2975       H  0.06274776  0.60919179  0.76288514     0.19000
H2976       H  0.10873005  0.57407133  0.72836293     0.19000
C2977       C  0.88897283  0.60163447  0.85972308    -0.06800
C2978       C  0.89489019  0.60275013  0.87783032    -0.17900
C2979       C  0.88263304  0.60258297  0.89243435     0.10400
C2980       C  0.86381656  0.60072530  0.88912346    -0.06700
C2981       C  0.85783205  0.60094680  0.87096510    -0.17900
C2982       C  0.87006907  0.60169644  0.85635033     0.10400
S2983       S  0.89211070  0.60427955  0.91489450    -0.32900
S2984       S  0.86052255  0.60227378  0.83381200    -0.32900
H2985       H  0.87310977  0.61500100  0.82711189     0.28500
H2986       H  0.87896755  0.61676698  0.92093134     0.28400
H2987       H  0.90924239  0.60307356  0.88074606     0.19000
H2988       H  0.84353645  0.59998095  0.86804601     0.19000
C2989       C  0.91501716  0.59584673  0.76742596    -0.06800
C2990       C  0.90354535  0.58339053  0.75869282    -0.17900
C2991       C  0.90279489  0.58220875  0.73972534     0.10400
C2992       C  0.91408861  0.59345780  0.72899126    -0.06700
C2993       C  0.92439051  0.60690226  0.73764629    -0.17900
C2994       C  0.92468836  0.60848389  0.75660315     0.10400
S2995       S  0.88857079  0.56479913  0.73031846    -0.32900
S2996       S  0.93827278  0.62643906  0.76592973    -0.32900
H2997       H  0.92510491  0.63149302  0.77883505     0.28500
H2998       H  0.87949780  0.57692685  0.71860379     0.28400
H2999       H  0.89570184  0.57383532  0.76665920     0.19000
H3000       H  0.93273632  0.61597353  0.72958755     0.19000
C3001       C  0.98199744  0.59331692  0.82919753    -0.06800
C3002       C  0.99119279  0.60373669  0.81610173    -0.17900
C3003       C  0.01017897  0.60351101  0.81486037     0.10400
C3004       C  0.02042826  0.59228763  0.82678240    -0.06700
C3005       C  0.01116785  0.58270206  0.84052481    -0.17900
C3006       C  0.99225992  0.58336323  0.84205786     0.10400
S3007       S  0.02021783  0.61720094  0.79717917    -0.32900
S3008       S  0.98208644  0.57127171  0.86084928    -0.32900
H3009       H  0.96792411  0.58385097  0.86340109     0.28500
H3010       H  0.03252912  0.62557782  0.80905877     0.28400
H3011       H  0.98351523  0.61154486  0.80623723     0.19000
H3012       H  0.01866435  0.57437905  0.85007875     0.19000
C3013       C  0.11273203  0.41115460  0.85651454    -0.06800
C3014       C  0.10678456  0.41082200  0.87463296    -0.17900
C3015       C  0.11905696  0.40982029  0.88907719     0.10400
C3016       C  0.13793631  0.40958986  0.88549314    -0.06700
C3017       C  0.14378182  0.40843386  0.86730305    -0.17900
C3018       C  0.13142383  0.40894666  0.85285970     0.10400
S3019       S  0.10956472  0.40944814  0.91166092    -0.32900
S3020       S  0.14041862  0.40684874  0.83014491    -0.32900
H3021       H  0.12531156  0.39753550  0.82323669     0.28500
H3022       H  0.12185235  0.39631586  0.91818925     0.28400
H3023       H  0.09247744  0.41214935  0.87764860     0.19000
H3024       H  0.15809143  0.40779823  0.86422163     0.19000
C3025       C  0.09120562  0.41685327  0.76637137    -0.06800
C3026       C  0.08105285  0.40375318  0.75715265    -0.17900
C3027       C  0.08167526  0.40253000  0.73819487     0.10400
C3028       C  0.09237886  0.41495661  0.72813351    -0.06700
C3029       C  0.10430070  0.42638602  0.73749822    -0.17900
C3030       C  0.10392675  0.42736670  0.75655124     0.10400
S3031       S  0.06800975  0.38528874  0.72763128    -0.32900
S3032       S  0.11936437  0.44239710  0.76810539    -0.32900
H3033       H  0.13031418  0.44635040  0.75291534     0.28500
H3034       H  0.07945395  0.38307388  0.71245933     0.28400
H3035       H  0.07172360  0.39509965  0.76465515     0.19000
H3036       H  0.11293183  0.43560012  0.72985364     0.19000
C3037       C  0.07226778  0.48553583  0.82249523    -0.06800
C3038       C  0.06291534  0.49470559  0.80856395    -0.17900
C3039       C  0.06192975  0.51363540  0.80794770     0.10400
C3040       C  0.07086697  0.52397433  0.82134617    -0.06700
C3041       C  0.07985175  0.51488149  0.83554500    -0.17900
C3042       C  0.08050197  0.49589582  0.83639657     0.10400
S3043       S  0.04878410  0.52354426  0.78978167    -0.32900
S3044       S  0.09234134  0.48600672  0.85542294    -0.32900
H3045       H  0.07759630  0.47502550  0.86057871     0.28500
H3046       H  0.03996368  0.53616286  0.80109199     0.28400
H3047       H  0.05626270  0.48711626  0.79798956     0.19000
H3048       H  0.08666466  0.52259160  0.84595354     0.19000
C3049       C  0.89250464  0.41660086  0.86295791    -0.06800
C3050       C  0.87428490  0.41370039  0.85825011    -0.17900
C3051       C  0.86063201  0.41247812  0.87151608     0.10400
C3052       C  0.86493009  0.41525157  0.89007480    -0.06700
C3053       C  0.88331811  0.41653152  0.89487140    -0.17900
C3054       C  0.89707988  0.41671791  0.88166989     0.10400
S3055       S  0.83805670  0.40760388  0.86368923    -0.32900
S3056       S  0.92010156  0.41732330  0.88974577    -0.32900
H3057       H  0.92648699  0.40475713  0.87685150     0.28500
H3058       H  0.83423901  0.39549866  0.87806602     0.28400
H3059       H  0.87050351  0.41280081  0.84406927     0.19000
H3060       H  0.88705556  0.41792290  0.90903253     0.19000
C3061       C  0.91595950  0.42226062  0.76838286    -0.06800
C3062       C  0.92702713  0.40929502  0.75986164    -0.17900
C3063       C  0.92845284  0.40856095  0.74079925     0.10400
C3064       C  0.91840743  0.42097857  0.73001082    -0.06700
C3065       C  0.90612090  0.43275290  0.73858236    -0.17900
C3066       C  0.90478494  0.43351593  0.75753749     0.10400
S3067       S  0.94335291  0.39195660  0.73055821    -0.32900
S3068       S  0.88892210  0.44956555  0.76702966    -0.32900
H3069       H  0.88506296  0.43918152  0.78267338     0.28500
H3070       H  0.94956528  0.38396764  0.74681260     0.28400
H3071       H  0.93545354  0.40054199  0.76816718     0.19000
H3072       H  0.89813517  0.44212443  0.73051812     0.19000
C3073       C  0.92528859  0.49000473  0.82135220    -0.06800
C3074       C  0.92040387  0.49902331  0.83739468    -0.17900
C3075       C  0.92092278  0.51799775  0.83847792     0.10400
C3076       C  0.92593885  0.52836222  0.82298912    -0.06700
C3077       C  0.93035486  0.51923738  0.80681161    -0.17900
C3078       C  0.92990471  0.50030422  0.80579441     0.10400
S3079       S  0.91568450  0.52785810  0.86023595    -0.32900
S3080       S  0.93445355  0.49022754  0.78396665    -0.32900
H3081       H  0.92069005  0.47713741  0.78554441     0.28500
H3082       H  0.93177379  0.53807521  0.86079347     0.28400
H3083       H  0.91688042  0.49125784  0.84933375     0.19000
H3084       H  0.93386099  0.52683386  0.79475946     0.19000
C3085       C  0.98212775  0.41856006  0.82712458    -0.06800
C3086       C  0.99072638  0.41264654  0.81115568    -0.17900
C3087       C  0.00966461  0.41229281  0.80964537     0.10400
C3088       C  0.02043586  0.41753625  0.82464848    -0.06700
C3089       C  0.01176201  0.42184475  0.84110193    -0.17900
C3090       C  0.99280039  0.42226723  0.84256199     0.10400
S3091       S  0.01904673  0.40675499  0.78771332    -0.32900
S3092       S  0.98242020  0.42747724  0.86419126    -0.32900
H3093       H  0.99830886  0.42619664  0.87466165     0.28500
H3094       H  0.02964536  0.42258917  0.78660479     0.28400
H3095       H  0.98262148  0.40958265  0.79920890     0.19000
H3096       H  0.01994522  0.42547811  0.85281026     0.19000
C3097       C  0.39291528  0.64568195  0.90995225    -0.06800
C3098       C  0.37478005  0.65034323  0.90649473    -0.17900
C3099       C  0.36123757  0.63707912  0.90511662     0.10400
C3100       C  0.36561560  0.61850668  0.90784505    -0.06700
C3101       C  0.38399034  0.61376543  0.90978601    -0.17900
C3102       C  0.39762878  0.62702372  0.91054520     0.10400
S3103       S  0.33863269  0.64484147  0.90002301    -0.32900
S3104       S  0.42073782  0.61923147  0.91235073    -0.32900
H3105       H  0.42797836  0.63328212  0.90152744     0.28500
H3106       H  0.33438141  0.62985362  0.88903490     0.28400
H3107       H  0.37092252  0.66458434  0.90548226     0.19000
H3108       H  0.38777332  0.59956466  0.91142852     0.19000
C3109       C  0.36711590  0.61575471  0.09384271    -0.06800
C3110       C  0.36145738  0.63391753  0.09559687    -0.17900
C3111       C  0.37405374  0.64824650  0.09637963     0.10400
C3112       C  0.39282418  0.64441237  0.09485506    -0.06700
C3113       C  0.39842320  0.62615606  0.09515121    -0.17900
C3114       C  0.38588077  0.61189670  0.09502647     0.10400
S3115       S  0.36586785  0.67124626  0.09901676    -0.32900
S3116       S  0.39478684  0.58911101  0.09618934    -0.32900
H3117       H  0.38036582  0.58230368  0.10674902     0.28500
H3118       H  0.34745609  0.66693483  0.10142911     0.28400
H3119       H  0.34709409  0.63699843  0.09536653     0.19000
H3120       H  0.41276045  0.62287373  0.09478103     0.19000
C3121       C  0.42334537  0.67992264  0.98349152    -0.06800
C3122       C  0.41187414  0.69141202  0.99343095    -0.17900
C3123       C  0.41167817  0.69102072  0.01243091     0.10400
C3124       C  0.42362812  0.67922850  0.02183751    -0.06700
C3125       C  0.43447864  0.66718570  0.01190967    -0.17900
C3126       C  0.43428282  0.66720476  0.99292011     0.10400
S3127       S  0.39556463  0.70554662  0.02376321    -0.32900
S3128       S  0.44801224  0.65040314  0.98161852    -0.32900
H3129       H  0.43513315  0.64674499  0.96803658     0.28500
H3130       H  0.39190820  0.69327130  0.03802563     0.28400
H3131       H  0.40312484  0.70099701  0.98634204     0.19000
H3132       H  0.44346756  0.65785722  0.01900418     0.19000
C3133       C  0.61666892  0.64760265  0.09538385    -0.06800
C3134       C  0.61053272  0.62955615  0.09465116    -0.17900
C3135       C  0.62274519  0.61486020  0.09474295     0.10400
C3136       C  0.64160879  0.61826166  0.09534832    -0.06700
C3137       C  0.64757707  0.63617379  0.09771122    -0.17900
C3138       C  0.63538975  0.65076645  0.09795876     0.10400
S3139       S  0.61399291  0.59195315  0.09397299    -0.32900
S3140       S  0.64472154  0.67307628  0.10134828    -0.32900
H3141       H  0.63003300  0.67929733  0.11187030     0.28500
H3142       H  0.59547416  0.59652782  0.09423907     0.28400
H3143       H  0.59621412  0.62699004  0.09306620     0.19000
H3144       H  0.66195400  0.63897202  0.09863814     0.19000
C3145       C  0.52554204  0.67798710  0.08582064    -0.06800
C3146       C  0.51675386  0.66716490  0.07284459    -0.17900
C3147       C  0.49784379  0.66592601  0.07212911     0.10400
C3148       C  0.48710454  0.67616261  0.08432020    -0.06700
C3149       C  0.49580190  0.68602335  0.09805611    -0.17900
C3150       C  0.51483617  0.68698109  0.09905088     0.10400
S3151       S  0.48833626  0.65077159  0.05550623    -0.32900
S3152       S  0.52504764  0.69979790  0.11723424    -0.32900
H3153       H  0.50888074  0.70554253  0.12559871     0.28500
H3154       H  0.47410489  0.64479730  0.06680425     0.28400
H3155       H  0.52466721  0.65974677  0.06287865     0.19000
H3156       H  0.48760842  0.69356283  0.10766744     0.19000
C3157       C  0.61152327  0.64774085  0.91106046    -0.06800
C3158       C  0.62956791  0.65327855  0.90852584    -0.17900
C3159       C  0.64390035  0.64074777  0.90825332     0.10400
C3160       C  0.64042151  0.62206128  0.91112764    -0.06700
C3161       C  0.62225743  0.61632103  0.91193520    -0.17900
C3162       C  0.60779777  0.62888488  0.91177615     0.10400
S3163       S  0.66632336  0.64956591  0.90427242    -0.32900
S3164       S  0.58477734  0.62059785  0.91267501    -0.32900
H3165       H  0.58895232  0.60205127  0.91078089     0.28500
H3166       H  0.67221323  0.63447917  0.89415130     0.28400
H3167       H  0.63269259  0.66763691  0.90738932     0.19000
H3168       H  0.61939447  0.60199153  0.91367750     0.19000
C3169       C  0.57957765  0.68249551  0.98308713    -0.06800
C3170       C  0.56341069  0.68523829  0.99276702    -0.17900
C3171       C  0.56323917  0.68608874  0.01169453     0.10400
C3172       C  0.57968381  0.68434933  0.02135550    -0.06700
C3173       C  0.59580892  0.68108114  0.01174907    -0.17900
C3174       C  0.59593830  0.68003741  0.99276598     0.10400
S3175       S  0.54152173  0.68899235  0.02261420    -0.32900
S3176       S  0.61728183  0.67518295  0.98183651    -0.32900
H3177       H  0.60980889  0.66357051  0.96870641     0.28500
H3178       H  0.54489626  0.67604091  0.03632176     0.28400
H3179       H  0.55072732  0.68704074  0.98549673     0.19000
H3180       H  0.60845932  0.67945391  0.01908426     0.19000
C3181       C  0.52044080  0.68842070  0.91695711    -0.06800
C3182       C  0.51142712  0.67192302  0.91394247    -0.17900
C3183       C  0.49238863  0.67097354  0.91414870     0.10400
C3184       C  0.48205544  0.68692371  0.91699802    -0.06700
C3185       C  0.49114897  0.70346103  0.91934430    -0.17900
C3186       C  0.51006507  0.70439239  0.91941633     0.10400
S3187       S  0.48223989  0.64878751  0.91347273    -0.32900
S3188       S  0.52005653  0.72637564  0.92332221    -0.32900
H3189       H  0.53554686  0.72331049  0.91260475     0.28500
H3190       H  0.47073042  0.65312550  0.89888111     0.28400
H3191       H  0.51921499  0.65955633  0.91259468     0.19000
H3192       H  0.48343032  0.71575640  0.92165501     0.19000
C3193       C  0.60325654  0.87293092  0.11441675    -0.06800
C3194       C  0.60190087  0.89096039  0.10823834    -0.17900
C3195       C  0.60196914  0.90566403  0.12032810     0.10400
C3196       C  0.60291414  0.90237556  0.13930725    -0.06700
C3197       C  0.60589043  0.88444106  0.14538578    -0.17900
C3198       C  0.60633959  0.86976120  0.13315241     0.10400
S3199       S  0.60044655  0.92841963  0.11104881    -0.32900
S3200       S  0.61078241  0.84717059  0.14179002    -0.32900
H3201       H  0.61648035  0.85244495  0.15922162     0.28500
H3202       H  0.60184457  0.92375482  0.09257833     0.28400
H3203       H  0.59998098  0.89352670  0.09392656     0.19000
H3204       H  0.60709790  0.88181348  0.15973302     0.19000
C3205       C  0.59598823  0.77901324  0.09059327    -0.06800
C3206       C  0.58202307  0.77020680  0.10028699    -0.17900
C3207       C  0.58010386  0.75129130  0.10007016     0.10400
C3208       C  0.59266872  0.74060566  0.09030736    -0.06700
C3209       C  0.60754751  0.74920303  0.08201818    -0.17900
C3210       C  0.60952876  0.76815400  0.08231433     0.10400
S3211       S  0.56012398  0.74193316  0.11064886    -0.32900
S3212       S  0.62911714  0.77749151  0.07106974    -0.32900
H3213       H  0.63286411  0.78979990  0.08514198     0.28500
H3214       H  0.55504173  0.73178164  0.09532958     0.28400
H3215       H  0.57162418  0.77816759  0.10699460     0.19000
H3216       H  0.61746593  0.74111194  0.07477812     0.19000
C3217       C  0.58848030  0.78145012  0.91852777    -0.06800
C3218       C  0.57763069  0.77270549  0.90552565    -0.17900
C3219       C  0.57692311  0.75369585  0.90433524     0.10400
C3220       C  0.58688591  0.74289671  0.91679081    -0.06700
C3221       C  0.59863942  0.75166888  0.92892582    -0.17900
C3222       C  0.59976921  0.77062304  0.92975756     0.10400
S3223       S  0.56198080  0.74426751  0.88756064    -0.32900
S3224       S  0.61488179  0.77989650  0.94649706    -0.32900
H3225       H  0.62366766  0.79130917  0.93387219     0.28500
H3226       H  0.57530103  0.73253951  0.88050030     0.28400
H3227       H  0.56914365  0.78070934  0.89656453     0.19000
H3228       H  0.60665748  0.74369282  0.93835080     0.19000
C3229       C  0.59274631  0.84415866  0.98380126    -0.06800
C3230       C  0.60450592  0.83151207  0.99203767    -0.17900
C3231       C  0.60657360  0.83065465  0.01104404     0.10400
C3232       C  0.59639175  0.84249147  0.02230388    -0.06700
C3233       C  0.58572437  0.85596165  0.01388183    -0.17900
C3234       C  0.58397244  0.85706926  0.99496214     0.10400
S3235       S  0.62132208  0.81328370  0.01996413    -0.32900
S3236       S  0.57010721  0.87521199  0.98602561    -0.32900
H3237       H  0.58106207  0.87827919  0.97062877     0.28500
H3238       H  0.63074783  0.82537405  0.03126145     0.28400
H3239       H  0.61151727  0.82165401  0.98369597     0.19000
H3240       H  0.57819575  0.86552192  0.02214586     0.19000
C3241       C  0.41815857  0.87062142  0.10982863    -0.06800
C3242       C  0.42262277  0.88819994  0.10383701    -0.17900
C3243       C  0.42291807  0.90296633  0.11581569     0.10400
C3244       C  0.41874096  0.90012764  0.13444412    -0.06700
C3245       C  0.41252516  0.88291585  0.13998042    -0.17900
C3246       C  0.41197165  0.86827291  0.12788370     0.10400
S3247       S  0.42926368  0.92504215  0.10697900    -0.32900
S3248       S  0.40349434  0.84696784  0.13647586    -0.32900
H3249       H  0.39492605  0.84215492  0.12012055     0.28500
H3250       H  0.43063798  0.92018090  0.08855029     0.28400
H3251       H  0.42695084  0.89020666  0.08993073     0.19000
H3252       H  0.40872449  0.88060804  0.15399204     0.19000
C3253       C  0.42492507  0.77531361  0.08920450    -0.06800
C3254       C  0.41259476  0.76643170  0.07780849    -0.17900
C3255       C  0.41127301  0.74744978  0.07766007     0.10400
C3256       C  0.42278891  0.73691111  0.08891977    -0.06700
C3257       C  0.43385567  0.74578309  0.10156395    -0.17900
C3258       C  0.43476848  0.76483041  0.10205288     0.10400
S3259       S  0.39459900  0.73702492  0.06308251    -0.32900
S3260       S  0.44870060  0.77482172  0.11939091    -0.32900
H3261       H  0.43670920  0.78934022  0.12270921     0.28500
H3262       H  0.39139811  0.75227242  0.05193539     0.28400
H3263       H  0.40444031  0.77430152  0.06852531     0.19000
H3264       H  0.44231079  0.73791250  0.11060976     0.19000
C3265       C  0.49226669  0.83332343  0.07677164    -0.06800
C3266       C  0.50204505  0.81796419  0.07125523    -0.17900
C3267       C  0.52092029  0.81758541  0.07159958     0.10400
C3268       C  0.53058125  0.83316797  0.07714256    -0.06700
C3269       C  0.52084470  0.84864356  0.08257093    -0.17900
C3270       C  0.50186186  0.84899374  0.08225286     0.10400
S3271       S  0.53165258  0.79637232  0.06575823    -0.32900
S3272       S  0.49085963  0.87005355  0.08813217    -0.32900
H3273       H  0.47816719  0.86925744  0.07390455     0.28500
H3274       H  0.54332704  0.79641959  0.08086769     0.28400
H3275       H  0.49487885  0.80578084  0.06716340     0.19000
H3276       H  0.52810212  0.86079044  0.08666271     0.19000
C3277       C  0.41825379  0.77967983  0.91616572    -0.06800
C3278       C  0.40380833  0.77080312  0.92490401    -0.17900
C3279       C  0.40241026  0.75180251  0.92481459     0.10400
C3280       C  0.41584981  0.74129050  0.91597001    -0.06700
C3281       C  0.42931318  0.75025606  0.90588284    -0.17900
C3282       C  0.43060590  0.76922049  0.90578292     0.10400
S3283       S  0.38337417  0.74182961  0.93653537    -0.32900
S3284       S  0.44865900  0.77911403  0.89249431    -0.32900
H3285       H  0.43861556  0.79450805  0.88716362     0.28500
H3286       H  0.38193175  0.72682268  0.92486050     0.28400
H3287       H  0.39401677  0.77861648  0.93258137     0.19000
H3288       H  0.43954956  0.74242274  0.89878502     0.19000
C3289       C  0.48412096  0.83783206  0.92941349    -0.06800
C3290       C  0.49331687  0.84151097  0.91309409    -0.17900
C3291       C  0.51231443  0.84161768  0.91226598     0.10400
C3292       C  0.52241302  0.83773234  0.92817529    -0.06700
C3293       C  0.51314510  0.83440038  0.94452706    -0.17900
C3294       C  0.49426001  0.83483576  0.94543803     0.10400
S3295       S  0.52321484  0.84563081  0.89058844    -0.32900
S3296       S  0.48403826  0.83232694  0.96761128    -0.32900
H3297       H  0.47089800  0.84594055  0.96477247     0.28500
H3298       H  0.50790284  0.85268120  0.88160158     0.28400
H3299       H  0.48553223  0.84376277  0.90073233     0.19000
H3300       H  0.52075216  0.83188177  0.95697269     0.19000
C3301       C  0.41783408  0.84074383  0.98408687    -0.06800
C3302       C  0.42941588  0.85294056  0.99299299    -0.17900
C3303       C  0.43175064  0.85244916  0.01184731     0.10400
C3304       C  0.42270070  0.83910062  0.02231475    -0.06700
C3305       C  0.41000940  0.82788805  0.01372692    -0.17900
C3306       C  0.40723474  0.82876595  0.99486557     0.10400
S3307       S  0.44650832  0.86923924  0.02166024    -0.32900
S3308       S  0.39027629  0.81399501  0.98551229    -0.32900
H3309       H  0.38340859  0.82726739  0.97351546     0.28500
H3310       H  0.43620595  0.87137686  0.03764107     0.28400
H3311       H  0.43730687  0.86266622  0.98513315     0.19000
H3312       H  0.40256624  0.81791258  0.02169459     0.19000
C3313       C  0.41002685  0.11646718  0.87041876    -0.06800
C3314       C  0.40808102  0.13475833  0.86524423    -0.17900
C3315       C  0.40840459  0.14877200  0.87804806     0.10400
C3316       C  0.41171713  0.14471467  0.89658860    -0.06700
C3317       C  0.41181220  0.12635833  0.90200849    -0.17900
C3318       C  0.41045592  0.11227373  0.88925224     0.10400
S3319       S  0.40460912  0.17150603  0.86971252    -0.32900
S3320       S  0.40952566  0.08936402  0.89792638    -0.32900
H3321       H  0.39681446  0.08352171  0.88497194     0.28500
H3322       H  0.39436102  0.17689691  0.88493581     0.28400
H3323       H  0.40688428  0.13832126  0.85095240     0.19000
H3324       H  0.41350893  0.12288146  0.91625374     0.19000
C3325       C  0.41083539  0.89676157  0.86137956    -0.06800
C3326       C  0.41082495  0.90265140  0.87951491    -0.17900
C3327       C  0.41039568  0.89027378  0.89405981     0.10400
C3328       C  0.41053483  0.87134866  0.89055652    -0.06700
C3329       C  0.40893137  0.86559356  0.87240772    -0.17900
C3330       C  0.40868441  0.87803517  0.85791537     0.10400
S3331       S  0.41085077  0.89968231  0.91660466    -0.32900
S3332       S  0.40569899  0.86911620  0.83534814    -0.32900
H3333       H  0.39582879  0.88420613  0.82890192     0.28500
H3334       H  0.39661695  0.88863629  0.92295391     0.28400
H3335       H  0.41207345  0.91698224  0.88245054     0.19000
H3336       H  0.40837597  0.85124013  0.86938194     0.19000
C3337       C  0.41491835  0.98774044  0.83259043    -0.06800
C3338       C  0.42265316  0.99605229  0.84790584    -0.17900
C3339       C  0.42263436  0.01493468  0.84994854     0.10400
C3340       C  0.41513870  0.02607194  0.83618912    -0.06700
C3341       C  0.40604304  0.01781617  0.82166178    -0.17900
C3342       C  0.40559615  0.99884743  0.81986534     0.10400
S3343       S  0.43253752  0.02391791  0.87040198    -0.32900
S3344       S  0.39331161  0.98990524  0.80078138    -0.32900
H3345       H  0.38519047  0.97587081  0.81096298     0.28500
H3346       H  0.42079700  0.03896668  0.87149889     0.28400
H3347       H  0.42931654  0.98788079  0.85814010     0.19000
H3348       H  0.39991477  0.02615953  0.81123014     0.19000
C3349       C  0.59230358  0.12281148  0.86535903    -0.06800
C3350       C  0.59589834  0.14066787  0.85949231    -0.17900
C3351       C  0.59746285  0.15503045  0.87187601     0.10400
C3352       C  0.59503428  0.15170394  0.89068089    -0.06700
C3353       C  0.59253370  0.13371516  0.89660336    -0.17900
C3354       C  0.59117795  0.11928266  0.88426543     0.10400
S3355       S  0.60274867  0.17718773  0.86282390    -0.32900
S3356       S  0.58804562  0.09650376  0.89300936    -0.32900
H3357       H  0.58799850  0.10088113  0.91160132     0.28500
H3358       H  0.61326108  0.18251604  0.87781315     0.28400
H3359       H  0.59708987  0.14358809  0.84507071     0.19000
H3360       H  0.59080317  0.13104457  0.91098991     0.19000
C3361       C  0.52169394  0.08206340  0.83203213    -0.06800
C3362       C  0.51209478  0.09853571  0.83316458    -0.17900
C3363       C  0.49318489  0.09900827  0.83330328     0.10400
C3364       C  0.48340270  0.08260531  0.83224302    -0.06700
C3365       C  0.49289023  0.06609782  0.83165806    -0.17900
C3366       C  0.51182070  0.06557536  0.83199488     0.10400
S3367       S  0.48248794  0.12103695  0.83386180    -0.32900
S3368       S  0.52228572  0.04345080  0.83253441    -0.32900
H3369       H  0.53313631  0.04752982  0.84768714     0.28500
H3370       H  0.46956910  0.11696394  0.82045408     0.28400
H3371       H  0.51936882  0.11133009  0.83345904     0.19000
H3372       H  0.48543964  0.05338707  0.83128846     0.19000
C3373       C  0.59797691  0.90153754  0.86412308    -0.06800
C3374       C  0.59801775  0.90701238  0.88240558    -0.17900
C3375       C  0.59757584  0.89428896  0.89674029     0.10400
C3376       C  0.59683078  0.87549410  0.89275140    -0.06700
C3377       C  0.59880948  0.87007482  0.87454080    -0.17900
C3378       C  0.59954853  0.88280099  0.86025064     0.10400
S3379       S  0.59745772  0.90244278  0.91988782    -0.32900
S3380       S  0.60252712  0.87483805  0.83721679    -0.32900
H3381       H  0.60055181  0.85619773  0.84096388     0.28500
H3382       H  0.60092231  0.92080228  0.91583306     0.28400
H3383       H  0.59730403  0.92138357  0.88549852     0.19000
H3384       H  0.59905022  0.85571530  0.87138683     0.19000
C3385       C  0.52408183  0.94174159  0.83299872    -0.06800
C3386       C  0.51545175  0.92633904  0.84028363    -0.17900
C3387       C  0.49653229  0.92468438  0.84017834     0.10400
C3388       C  0.48582013  0.93831706  0.83174808    -0.06700
C3389       C  0.49444533  0.95415379  0.82541105    -0.17900
C3390       C  0.51325994  0.95622947  0.82647412     0.10400
S3391       S  0.48714558  0.90480134  0.85096973    -0.32900
S3392       S  0.52243299  0.97795272  0.81985052    -0.32900
H3393       H  0.53534822  0.97836361  0.83390670     0.28500
H3394       H  0.47495111  0.91486312  0.86171911     0.28400
H3395       H  0.52346750  0.91536608  0.84586066     0.19000
H3396       H  0.48651707  0.96510153  0.81968947     0.19000
C3397       C  0.59690005  0.99353350  0.82987601    -0.06800
C3398       C  0.59884739  0.00254374  0.81313323    -0.17900
C3399       C  0.59866852  0.02153598  0.81199035     0.10400
C3400       C  0.59621405  0.03197599  0.82794317    -0.06700
C3401       C  0.59625424  0.02299761  0.84485240    -0.17900
C3402       C  0.59672436  0.00395065  0.84597992     0.10400
S3403       S  0.60103468  0.03154401  0.78967262    -0.32900
S3404       S  0.59670563  0.99372950  0.86829701    -0.32900
H3405       H  0.60654314  0.97817042  0.86316686     0.28500
H3406       H  0.61041340  0.04699812  0.79570248     0.28400
H3407       H  0.59947331  0.99473792  0.80065701     0.19000
H3408       H  0.59489777  0.03078873  0.85725510     0.19000
C3409       C  0.61633923  0.10265950  0.64379148    -0.06800
C3410       C  0.63423939  0.10393978  0.65017994    -0.17900
C3411       C  0.64895812  0.10484484  0.63821144     0.10400
C3412       C  0.64596943  0.10391718  0.61930414    -0.06700
C3413       C  0.62808541  0.10480030  0.61281677    -0.17900
C3414       C  0.61321234  0.10420816  0.62483265     0.10400
S3415       S  0.67127278  0.10679416  0.64793132    -0.32900
S3416       S  0.59054341  0.10485762  0.61556299    -0.32900
H3417       H  0.59540733  0.10187034  0.59731887     0.28500
H3418       H  0.67860215  0.11667207  0.63322998     0.28400
H3419       H  0.63692687  0.10352820  0.66464029     0.19000
H3420       H  0.62575984  0.10472648  0.59833506     0.19000
C3421       C  0.58878715  0.09845906  0.73424602    -0.06800
C3422       C  0.57659202  0.11019391  0.74297657    -0.17900
C3423       C  0.57615075  0.11150085  0.76197026     0.10400
C3424       C  0.58793264  0.10055019  0.77255991    -0.06700
C3425       C  0.60142128  0.09041738  0.76369117    -0.17900
C3426       C  0.60207931  0.08939626  0.74471885     0.10400
S3427       S  0.55996577  0.12699599  0.77179878    -0.32900
S3428       S  0.61989946  0.07592087  0.73472186    -0.32900
H3429       H  0.62121523  0.08635212  0.71868622     0.28500
H3430       H  0.57090638  0.13144205  0.78677457     0.28400
H3431       H  0.56665473  0.11765719  0.73502964     0.19000
H3432       H  0.61091949  0.08232988  0.77157763     0.19000
C3433       C  0.61270349  0.91673394  0.63871216    -0.06800
C3434       C  0.63094061  0.91452743  0.64377384    -0.17900
C3435       C  0.64492137  0.91391564  0.63083983     0.10400
C3436       C  0.64084618  0.91575318  0.61209146    -0.06700
C3437       C  0.62250099  0.91644386  0.60694638    -0.17900
C3438       C  0.60843813  0.91702171  0.61990606     0.10400
S3439       S  0.66765769  0.91183968  0.63945874    -0.32900
S3440       S  0.58531681  0.91880765  0.61194041    -0.32900
H3441       H  0.58928129  0.92186037  0.59346069     0.28500
H3442       H  0.67255138  0.89821025  0.62702186     0.28400
H3443       H  0.63450597  0.91399391  0.65803802     0.19000
H3444       H  0.61917951  0.91739298  0.59267843     0.19000
C3445       C  0.57757335  0.98982021  0.67899056    -0.06800
C3446       C  0.56326838  0.99894526  0.68765409    -0.17900
C3447       C  0.56282254  0.01788374  0.68876463     0.10400
C3448       C  0.57687883  0.02827657  0.68070351    -0.06700
C3449       C  0.59106863  0.01910827  0.67180094    -0.17900
C3450       C  0.59173234  0.00012473  0.67111312     0.10400
S3451       S  0.54378255  0.02767331  0.70057528    -0.32900
S3452       S  0.61145220  0.99004808  0.66071571    -0.32900
H3453       H  0.61429185  0.97750402  0.67493863     0.28500
H3454       H  0.55480102  0.03631370  0.71349898     0.28400
H3455       H  0.55232648  0.99127778  0.69371190     0.19000
H3456       H  0.60198466  0.02673361  0.66563610     0.19000
C3457       C  0.58749894  0.92346173  0.73349973    -0.06800
C3458       C  0.57402503  0.91431531  0.74344941    -0.17900
C3459       C  0.57366171  0.91465891  0.76250014     0.10400
C3460       C  0.58672729  0.92489464  0.77205817    -0.06700
C3461       C  0.60101323  0.93280976  0.76221562    -0.17900
C3462       C  0.60171701  0.93194679  0.74317126     0.10400
S3463       S  0.55621339  0.90171653  0.77380262    -0.32900
S3464       S  0.62109093  0.94194865  0.73206761    -0.32900
H3465       H  0.62200231  0.92883366  0.71823274     0.28500
H3466       H  0.56702920  0.89688484  0.78881934     0.28400
H3467       H  0.56321846  0.90730169  0.73630735     0.19000
H3468       H  0.61145335  0.94030939  0.76937509     0.19000
C3469       C  0.39353985  0.09927329  0.64327201    -0.06800
C3470       C  0.39914785  0.09694863  0.62516388    -0.17900
C3471       C  0.38661351  0.09597375  0.61089669     0.10400
C3472       C  0.36786921  0.09717120  0.61475633    -0.06700
C3473       C  0.36238295  0.10140508  0.63252574    -0.17900
C3474       C  0.37494806  0.10258133  0.64681020     0.10400
S3475       S  0.39478154  0.09296400  0.58790323    -0.32900
S3476       S  0.36696720  0.10794079  0.66940944    -0.32900
H3477       H  0.34908187  0.11241829  0.66451706     0.28500
H3478       H  0.41332679  0.09512334  0.59168667     0.28400
H3479       H  0.41345412  0.09486824  0.62224262     0.19000
H3480       H  0.34791155  0.10277553  0.63547597     0.19000
C3481       C  0.48492184  0.09722288  0.67407302    -0.06800
C3482       C  0.49399978  0.08963713  0.65910058    -0.17900
C3483       C  0.51299959  0.08946839  0.65794488     0.10400
C3484       C  0.52333757  0.09703136  0.67221333    -0.06700
C3485       C  0.51422147  0.10583978  0.68646574    -0.17900
C3486       C  0.49527443  0.10606911  0.68755815     0.10400
S3487       S  0.52366835  0.07907045  0.63841378    -0.32900
S3488       S  0.48536674  0.11604485  0.70755371    -0.32900
H3489       H  0.47404527  0.12776817  0.69753183     0.28500
H3490       H  0.50776754  0.07584891  0.62843912     0.28400
H3491       H  0.48612833  0.08309526  0.64857588     0.19000
H3492       H  0.52194734  0.11177355  0.69752522     0.19000
C3493       C  0.41903004  0.09427329  0.73687295    -0.06800
C3494       C  0.40768808  0.08188095  0.74594284    -0.17900
C3495       C  0.40720200  0.08069925  0.76493228     0.10400
C3496       C  0.41836551  0.09216520  0.77545160    -0.06700
C3497       C  0.42869721  0.10551317  0.76642425    -0.17900
C3498       C  0.42878493  0.10698678  0.74736268     0.10400
S3499       S  0.39324906  0.06309801  0.77464120    -0.32900
S3500       S  0.44238244  0.12468376  0.73735679    -0.32900
H3501       H  0.42839175  0.13081088  0.72586507     0.28500
H3502       H  0.40769477  0.05494450  0.78414591     0.28400
H3503       H  0.39983512  0.07227329  0.73815572     0.19000
H3504       H  0.43700828  0.11467317  0.77424066     0.19000
C3505       C  0.39380864  0.91399554  0.63632468    -0.06800
C3506       C  0.37584301  0.91089542  0.64188358    -0.17900
C3507       C  0.36163984  0.90987298  0.62929679     0.10400
C3508       C  0.36523294  0.91238051  0.61052767    -0.06700
C3509       C  0.38337546  0.91393253  0.60487722    -0.17900
C3510       C  0.39763219  0.91449564  0.61744415     0.10400
S3511       S  0.33924182  0.90570579  0.63817010    -0.32900
S3512       S  0.42030789  0.91612380  0.60844121    -0.32900
H3513       H  0.42803937  0.90483656  0.62185488     0.28500
H3514       H  0.33377745  0.89492353  0.62342747     0.28400
H3515       H  0.37263925  0.91000761  0.65629651     0.19000
H3516       H  0.38649938  0.91548592  0.59050658     0.19000
C3517       C  0.48401264  0.92046165  0.66983984    -0.06800
C3518       C  0.49373281  0.92800092  0.65524445    -0.17900
C3519       C  0.51267910  0.92816008  0.65507488     0.10400
C3520       C  0.52235843  0.92084894  0.66997202    -0.06700
C3521       C  0.51273816  0.91216187  0.68399501    -0.17900
C3522       C  0.49372459  0.91215739  0.68427401     0.10400
S3523       S  0.52373951  0.93811676  0.63555081    -0.32900
S3524       S  0.48281923  0.90327527  0.70438329    -0.32900
H3525       H  0.47170226  0.91862222  0.70692307     0.28500
H3526       H  0.53910221  0.92677067  0.63627504     0.28400
H3527       H  0.48646302  0.93425005  0.64398145     0.19000
H3528       H  0.52005448  0.90666032  0.69561165     0.19000
C3529       C  0.42864378  0.98866698  0.67796976    -0.06800
C3530       C  0.44298326  0.99713855  0.68714451    -0.17900
C3531       C  0.44455051  0.01602345  0.68786524     0.10400
C3532       C  0.43087818  0.02709834  0.68008983    -0.06700
C3533       C  0.41637683  0.01865781  0.67113255    -0.17900
C3534       C  0.41531554  0.99975320  0.66959473     0.10400
S3535       S  0.46483121  0.02490438  0.69806401    -0.32900
S3536       S  0.39689521  0.99088075  0.65633819    -0.32900
H3537       H  0.40848986  0.98129840  0.64454094     0.28500
H3538       H  0.46879971  0.03632360  0.68317264     0.28400
H3539       H  0.45357161  0.98892605  0.69344845     0.19000
H3540       H  0.40582320  0.02689501  0.66489406     0.19000
C3541       C  0.41972167  0.92193917  0.73079800    -0.06800
C3542       C  0.43301433  0.91168358  0.73989099    -0.17900
C3543       C  0.43383712  0.91108485  0.75888553     0.10400
C3544       C  0.42134521  0.92130495  0.76928058    -0.06700
C3545       C  0.40714364  0.93032485  0.76028729    -0.17900
C3546       C  0.40616588  0.93076531  0.74119184     0.10400
S3547       S  0.45118128  0.89702024  0.76897126    -0.32900
S3548       S  0.38759948  0.94273124  0.73045463    -0.32900
H3549       H  0.38037580  0.95057820  0.74629910     0.28500
H3550       H  0.44057167  0.89176468  0.78402193     0.28400
H3551       H  0.44328832  0.90451034  0.73216086     0.19000
H3552       H  0.39731693  0.93778761  0.76821415     0.19000
loop_ 
_geom_bond_atom_site_label_1 
_geom_bond_atom_site_label_2 
_geom_bond_distance 
_geom_bond_site_symmetry_2 
_ccdc_geom_bond_type 
In1           O3   2.253       .  S
In1           O4   2.236       .  S
In1          O12   2.269       .  S
In1           O6   2.256       .  S
In1           O8   2.261       .  S
In1           O9   2.247       .  S
In1          O10   2.241       .  S
In1          O13   2.252       .  S
C2            O8   1.261       .  A
C2           O10   1.259       .  A
C2         C3517   1.482       .  S
O3           C11   1.261       .  A
O4           C11   1.260       .  A
C5           O12   1.260       .  A
C5            O6   1.257       .  A
C5         C3505   1.491       .  S
C7            O9   1.259       .  A
C7           O13   1.261       .  A
C7         C3541   1.487       .  S
C11        C3529   1.487       .  S
In14         O16   2.246       .  S
In14         O17   2.246       .  S
In14         O25   2.259       .  S
In14         O19   2.257       .  S
In14         O21   2.236       .  S
In14         O22   2.247       .  S
In14         O23   2.271       .  S
In14         O26   2.260       .  S
C15          O21   1.259       .  A
C15          O23   1.262       .  A
C15        C3493   1.489       .  S
O16          C24   1.260       .  A
O17          C24   1.261       .  A
C18          O25   1.259       .  A
C18          O19   1.258       .  A
C18        C3469   1.490       .  S
C20          O22   1.260       .  A
C20          O26   1.260       .  A
C20        C3481   1.488       .  S
C24        C3532   1.486       .  S
In27         O29   2.239       .  S
In27         O30   2.248       .  S
In27         O38   2.270       .  S
In27         O32   2.259       .  S
In27         O34   2.266       .  S
In27         O35   2.233       .  S
In27         O36   2.247       .  S
In27         O39   2.271       .  S
C28          O34   1.263       .  A
C28          O36   1.259       .  A
C28        C3457   1.489       .  S
O29          C37   1.260       .  A
O30          C37   1.260       .  A
C31          O38   1.261       .  A
C31          O32   1.257       .  A
C31        C3433   1.497       .  S
C33          O35   1.258       .  A
C33          O39   1.262       .  A
C33        C3520   1.479       .  S
C37        C3445   1.480       .  S
In40         O42   2.253       .  S
In40         O43   2.237       .  S
In40         O51   2.251       .  S
In40         O45   2.260       .  S
In40         O47   2.241       .  S
In40         O48   2.235       .  S
In40         O49   2.260       .  S
In40         O52   2.256       .  S
C41          O47   1.258       .  A
C41          O49   1.261       .  A
C41        C3484   1.487       .  S
O42          C50   1.262       .  A
O43          C50   1.258       .  A
C44          O51   1.258       .  A
C44          O45   1.258       .  A
C44        C3409   1.490       .  S
C46          O48   1.260       .  A
C46          O52   1.263       .  A
C46        C3421   1.478       .  S
C50        C3448   1.486       .  S
In53         O55   2.260       .  S
In53         O56   2.246       .  S
In53         O64   2.271       .  S
In53         O58   2.253       .  S
In53         O60   2.270       .  S
In53         O61   2.258       .  S
In53         O62   2.241       .  S
In53         O65   2.264       .  S
C54          O60   1.264       .  A
C54          O62   1.259       .  A
C54        C3460   1.487       .  S
O55          C63   1.260       .  A
O56          C63   1.259       .  A
C57          O64   1.261       .  A
C57          O58   1.258       .  A
C57        C3373   1.493       .  S
C59          O61   1.259       .  A
C59          O65   1.260       .  A
C59        C3397   1.485       .  S
C63        C3385   1.485       .  S
In66         O68   2.250       .  S
In66         O69   2.240       .  S
In66         O77   2.268       .  S
In66         O71   2.247       .  S
In66         O73   2.282       .  S
In66         O74   2.240       .  S
In66         O75   2.233       .  S
In66         O78   2.251       .  S
C67          O73   1.265       .  A
C67          O75   1.258       .  A
C67        C3400   1.488       .  S
O68          C76   1.257       .  A
O69          C76   1.259       .  A
C70          O77   1.262       .  A
C70          O71   1.259       .  A
C70        C3349   1.491       .  S
C72          O74   1.260       .  A
C72          O78   1.264       .  A
C72        C3424   1.483       .  S
C76        C3361   1.483       .  S
In79         O81   2.250       .  S
In79         O82   2.253       .  S
In79         O90   2.255       .  S
In79         O84   2.262       .  S
In79         O86   2.239       .  S
In79         O87   2.237       .  S
In79         O88   2.260       .  S
In79         O91   2.265       .  S
C80          O86   1.261       .  A
C80          O88   1.262       .  A
C80        C3337   1.491       .  S
O81          C89   1.259       .  A
O82          C89   1.258       .  A
C83          O90   1.258       .  A
C83          O84   1.259       .  A
C83        C3325   1.486       .  S
C85          O87   1.259       .  A
C85          O91   1.264       .  A
C85        C3544   1.484       .  S
C89        C3388   1.489       .  S
In92         O94   2.243       .  S
In92         O95   2.234       .  S
In92        O103   2.262       .  S
In92         O97   2.261       .  S
In92         O99   2.258       .  S
In92        O100   2.243       .  S
In92        O101   2.259       .  S
In92        O104   2.267       .  S
C93          O99   1.261       .  A
C93         O101   1.259       .  A
C93        C3496   1.489       .  S
O94         C102   1.261       .  A
O95         C102   1.261       .  A
C96         O103   1.258       .  A
C96          O97   1.260       .  A
C96        C3313   1.494       .  S
C98         O100   1.258       .  A
C98         O104   1.262       .  A
C98        C3340   1.483       .  S
C102       C3364   1.472       .  S
In105       O107   2.232       .  S
In105       O108   2.254       .  S
In105       O116   2.259       .  S
In105       O110   2.257       .  S
In105       O112   2.266       .  S
In105       O113   2.243       .  S
In105       O114   2.228       .  S
In105       O117   2.267       .  S
C106        O112   1.266       .  A
C106        O114   1.259       .  A
C106       C3277   1.485       .  S
O107        C115   1.258       .  A
O108        C115   1.260       .  A
C109        O116   1.259       .  A
C109        O110   1.259       .  A
C109       C3328   1.493       .  S
C111        O113   1.259       .  A
C111        O117   1.261       .  A
C111       C3301   1.492       .  S
C115       C3289   1.477       .  S
In118       O120   2.230       .  S
In118       O121   2.250       .  S
In118       O129   2.263       .  S
In118       O123   2.241       .  S
In118       O125   2.266       .  S
In118       O126   2.257       .  S
In118       O127   2.237       .  S
In118       O130   2.256       .  S
C119        O125   1.263       .  A
C119        O127   1.258       .  A
C119       C3304   1.482       .  S
O120        C128   1.262       .  A
O121        C128   1.261       .  A
C122        O129   1.260       .  A
C122        O123   1.258       .  A
C122       C3241   1.486       .  S
C124        O126   1.258       .  A
C124        O130   1.261       .  A
C124       C3253   1.489       .  S
C128       C3265   1.478       .  S
In131       O133   2.248       .  S
In131       O134   2.243       .  S
In131       O142   2.264       .  S
In131       O136   2.263       .  S
In131       O138   2.272       .  S
In131       O139   2.258       .  S
In131       O140   2.245       .  S
In131       O143   2.254       .  S
C132        O138   1.263       .  A
C132        O140   1.260       .  A
C132       C3229   1.490       .  S
O133        C141   1.260       .  A
O134        C141   1.261       .  A
C135        O142   1.260       .  A
C135        O136   1.258       .  A
C135       C3376   1.495       .  S
C137        O139   1.259       .  A
C137        O143   1.259       .  A
C137       C3217   1.491       .  S
C141       C3292   1.481       .  S
In144       O146   2.257       .  S
In144       O147   2.226       .  S
In144       O155   2.264       .  S
In144       O149   2.266       .  S
In144       O151   2.236       .  S
In144       O152   2.236       .  S
In144       O153   2.276       .  S
In144       O156   2.280       .  S
C145        O151   1.258       .  A
C145        O153   1.264       .  A
C145       C3205   1.494       .  S
O146        C154   1.261       .  A
O147        C154   1.258       .  A
C148        O155   1.259       .  A
C148        O149   1.257       .  A
C148       C3193   1.493       .  S
C150        O152   1.260       .  A
C150        O156   1.264       .  A
C150       C3232   1.495       .  S
C154       C3268   1.478       .  S
In157       O159   2.232       .  S
In157       O160   2.244       .  S
In157       O168   2.266       .  S
In157       O162   2.263       .  S
In157       O164   2.278       .  S
In157       O165   2.236       .  S
In157       O166   2.225       .  S
In157       O169   2.274       .  S
C158        O164   1.266       .  A
C158        O166   1.258       .  A
C158       C3181   1.481       .  S
O159        C167   1.259       .  A
O160        C167   1.259       .  A
C161        O168   1.261       .  A
C161        O162   1.259       .  A
C161       C3157   1.495       .  S
C163        O165   1.259       .  A
C163        O169   1.263       .  A
C163       C3220   1.492       .  S
C167       C3169   1.473       .  S
In170       O172   2.244       .  S
In170       O173   2.234       .  S
In170       O181   2.266       .  S
In170       O175   2.248       .  S
In170       O177   2.267       .  S
In170       O178   2.248       .  S
In170       O179   2.239       .  S
In170       O182   2.260       .  S
C171        O177   1.264       .  A
C171        O179   1.259       .  A
C171       C3208   1.483       .  S
O172        C180   1.260       .  A
O173        C180   1.259       .  A
C174        O181   1.260       .  A
C174        O175   1.257       .  A
C174       C3133   1.487       .  S
C176        O178   1.260       .  A
C176        O182   1.262       .  A
C176       C3145   1.493       .  S
C180       C3172   1.472       .  S
In183       O185   2.255       .  S
In183       O186   2.230       .  S
In183       O194   2.266       .  S
In183       O188   2.272       .  S
In183       O190   2.276       .  S
In183       O191   2.210       .  S
In183       O192   2.249       .  S
In183       O195   2.290       .  S
C184        O190   1.262       .  A
C184        O192   1.257       .  A
C184       C3148   1.488       .  S
O185        C193   1.264       .  A
O186        C193   1.257       .  A
C187        O194   1.256       .  A
C187        O188   1.258       .  A
C187       C3112   1.494       .  S
C189        O191   1.255       .  A
C189        O195   1.266       .  A
C189       C3256   1.484       .  S
C193       C3124   1.474       .  S
In196       O198   2.250       .  S
In196       O199   2.230       .  S
In196       O207   2.255       .  S
In196       O201   2.273       .  S
In196       O203   2.262       .  S
In196       O204   2.275       .  S
In196       O205   2.244       .  S
In196       O208   2.228       .  S
C197        O203   1.264       .  A
C197        O205   1.259       .  A
C197       C3280   1.484       .  S
O198        C206   1.261       .  A
O199        C206   1.258       .  A
C200        O207   1.258       .  A
C200        O201   1.261       .  A
C200       C3097   1.492       .  S
C202        O204   1.264       .  A
C202        O208   1.259       .  A
C202       C3184   1.483       .  S
C206       C3121   1.475       .  S
In209       O211   2.253       .  S
In209       O212   2.246       .  S
In209       O220   2.254       .  S
In209       O214   2.269       .  S
In209       O216   2.266       .  S
In209       O217   2.255       .  S
In209       O218   2.231       .  S
In209       O221   2.265       .  S
C210        O216   1.264       .  A
C210        O218   1.258       .  A
C210       C3061   1.480       .  S
O211        C219   1.261       .  A
O212        C219   1.260       .  A
C213        O220   1.258       .  A
C213        O214   1.261       .  A
C213       C3049   1.495       .  S
C215        O217   1.259       .  A
C215        O221   1.258       .  A
C215       C3085   1.484       .  S
C219       C3073   1.476       .  S
In222       O224   2.247       .  S
In222       O225   2.236       .  S
In222       O233   2.244       .  S
In222       O227   2.255       .  S
In222       O229   2.265       .  S
In222       O230   2.231       .  S
In222       O231   2.246       .  S
In222       O234   2.256       .  S
C223        O229   1.260       .  A
C223        O231   1.259       .  A
C223       C3088   1.486       .  S
O224        C232   1.259       .  A
O225        C232   1.262       .  A
C226        O233   1.257       .  A
C226        O227   1.261       .  A
C226       C3013   1.481       .  S
C228        O230   1.259       .  A
C228        O234   1.263       .  A
C228       C3025   1.478       .  S
C232       C3037   1.485       .  S
In235       O237   2.241       .  S
In235       O238   2.234       .  S
In235       O246   2.248       .  S
In235       O240   2.270       .  S
In235       O242   2.273       .  S
In235       O243   2.233       .  S
In235       O244   2.235       .  S
In235       O247   2.260       .  S
C236        O242   1.265       .  A
C236        O244   1.258       .  A
C236       C3001   1.485       .  S
O237        C245   1.260       .  A
O238        C245   1.261       .  A
C239        O246   1.255       .  A
C239        O240   1.261       .  A
C239       C2977   1.491       .  S
C241        O243   1.258       .  A
C241        O247   1.262       .  A
C241       C2989   1.488       .  S
C245       C3076   1.482       .  S
In248       O250   2.229       .  S
In248       O251   2.246       .  S
In248       O259   2.279       .  S
In248       O253   2.241       .  S
In248       O255   2.258       .  S
In248       O256   2.258       .  S
In248       O257   2.224       .  S
In248       O260   2.255       .  S
C249        O255   1.264       .  A
C249        O257   1.259       .  A
C249       C2965   1.476       .  S
O250        C258   1.259       .  A
O251        C258   1.262       .  A
C252        O259   1.261       .  A
C252        O253   1.255       .  A
C252       C2953   1.486       .  S
C254        O256   1.260       .  A
C254        O260   1.258       .  A
C254       C3004   1.493       .  S
C258       C3040   1.479       .  S
In261       O263   2.242       .  S
In261       O264   2.238       .  S
In261       O272   2.257       .  S
In261       O266   2.258       .  S
In261       O268   2.252       .  S
In261       O269   2.229       .  S
In261       O270   2.261       .  S
In261       O273   2.251       .  S
C262        O268   1.260       .  A
C262        O270   1.260       .  A
C262       C2941   1.495       .  S
O263        C271   1.260       .  A
O264        C271   1.259       .  A
C265        O272   1.256       .  A
C265        O266   1.260       .  A
C265       C2917   1.482       .  S
C267        O269   1.260       .  A
C267        O273   1.263       .  A
C267       C2992   1.483       .  S
C271       C2929   1.478       .  S
In274       O276   2.237       .  S
In274       O277   2.235       .  S
In274       O285   2.250       .  S
In274       O279   2.257       .  S
In274       O281   2.253       .  S
In274       O282   2.240       .  S
In274       O283   2.229       .  S
In274       O286   2.266       .  S
C275        O281   1.264       .  A
C275        O283   1.258       .  A
C275       C2968   1.480       .  S
O276        C284   1.260       .  A
O277        C284   1.261       .  A
C278        O285   1.257       .  A
C278        O279   1.258       .  A
C278       C2893   1.484       .  S
C280        O282   1.257       .  A
C280        O286   1.261       .  A
C280       C2905   1.486       .  S
C284       C2932   1.480       .  S
In287       O289   2.228       .  S
In287       O290   2.260       .  S
In287       O298   2.251       .  S
In287       O292   2.276       .  S
In287       O294   2.270       .  S
In287       O295   2.226       .  S
In287       O296   2.250       .  S
In287       O299   2.267       .  S
C288        O294   1.261       .  A
C288        O296   1.258       .  A
C288       C2908   1.486       .  S
O289        C297   1.259       .  A
O290        C297   1.263       .  A
C291        O298   1.256       .  A
C291        O292   1.261       .  A
C291       C2869   1.491       .  S
C293        O295   1.258       .  A
C293        O299   1.264       .  A
C293       C3028   1.480       .  S
C297       C2881   1.480       .  S
In300       O302   2.251       .  S
In300       O303   2.235       .  S
In300       O311   2.265       .  S
In300       O305   2.253       .  S
In300       O307   2.244       .  S
In300       O308   2.272       .  S
In300       O309   2.260       .  S
In300       O312   2.247       .  S
C301        O307   1.258       .  A
C301        O309   1.264       .  A
C301       C3064   1.485       .  S
O302        C310   1.261       .  A
O303        C310   1.261       .  A
C304        O311   1.260       .  A
C304        O305   1.257       .  A
C304       C2857   1.486       .  S
C306        O308   1.262       .  A
C306        O312   1.257       .  A
C306       C2944   1.496       .  S
C310       C2884   1.475       .  S
In313       O315   2.257       .  S
In313       O316   2.240       .  S
In313       O324   2.251       .  S
In313       O318   2.257       .  S
In313       O320   2.262       .  S
In313       O321   2.234       .  S
In313       O322   2.240       .  S
In313       O325   2.254       .  S
C314        O320   1.263       .  A
C314        O322   1.259       .  A
C314       C2821   1.479       .  S
O315        C323   1.259       .  A
O316        C323   1.257       .  A
C317        O324   1.258       .  A
C317        O318   1.259       .  A
C317       C2809   1.480       .  S
C319        O321   1.261       .  A
C319        O325   1.265       .  A
C319       C2845   1.482       .  S
C323       C2833   1.482       .  S
In326       O328   2.245       .  S
In326       O329   2.243       .  S
In326       O337   2.250       .  S
In326       O331   2.239       .  S
In326       O333   2.251       .  S
In326       O334   2.238       .  S
In326       O335   2.228       .  S
In326       O338   2.260       .  S
C327        O333   1.262       .  A
C327        O335   1.260       .  A
C327       C2797   1.480       .  S
O328        C336   1.260       .  A
O329        C336   1.260       .  A
C330        O337   1.260       .  A
C330        O331   1.256       .  A
C330       C2773   1.484       .  S
C332        O334   1.259       .  A
C332        O338   1.262       .  A
C332       C2785   1.486       .  S
C336       C2836   1.475       .  S
In339       O341   2.252       .  S
In339       O342   2.242       .  S
In339       O350   2.280       .  S
In339       O344   2.258       .  S
In339       O346   2.261       .  S
In339       O347   2.243       .  S
In339       O348   2.257       .  S
In339       O351   2.263       .  S
C340        O346   1.261       .  A
C340        O348   1.261       .  A
C340       C2761   1.496       .  S
O341        C349   1.261       .  A
O342        C349   1.259       .  A
C343        O350   1.260       .  A
C343        O344   1.259       .  A
C343       C3160   1.495       .  S
C345        O347   1.259       .  A
C345        O351   1.261       .  A
C345       C2824   1.479       .  S
C349       C2749   1.481       .  S
In352       O354   2.254       .  S
In352       O355   2.242       .  S
In352       O363   2.240       .  S
In352       O357   2.263       .  S
In352       O359   2.261       .  S
In352       O360   2.233       .  S
In352       O361   2.247       .  S
In352       O364   2.265       .  S
C353        O359   1.260       .  A
C353        O361   1.258       .  A
C353       C2788   1.478       .  S
O354        C362   1.260       .  A
O355        C362   1.258       .  A
C356        O363   1.257       .  A
C356        O357   1.263       .  A
C356       C3136   1.486       .  S
C358        O360   1.261       .  A
C358        O364   1.264       .  A
C358       C2737   1.491       .  S
C362       C2752   1.479       .  S
In365       O367   2.249       .  S
In365       O368   2.258       .  S
In365       O376   2.265       .  S
In365       O370   2.268       .  S
In365       O372   2.247       .  S
In365       O373   2.230       .  S
In365       O374   2.268       .  S
In365       O377   2.291       .  S
C366        O372   1.260       .  A
C366        O374   1.263       .  A
C366       C2764   1.496       .  S
O367        C375   1.259       .  A
O368        C375   1.259       .  A
C369        O376   1.257       .  A
C369        O370   1.258       .  A
C369       C2980   1.495       .  S
C371        O373   1.259       .  A
C371        O377   1.266       .  A
C371       C2725   1.489       .  S
C375       C2713   1.485       .  S
In378       O380   2.255       .  S
In378       O381   2.249       .  S
In378       O389   2.246       .  S
In378       O383   2.279       .  S
In378       O385   2.278       .  S
In378       O386   2.239       .  S
In378       O387   2.246       .  S
In378       O390   2.268       .  S
C379        O385   1.262       .  A
C379        O387   1.261       .  A
C379       C2728   1.497       .  S
O380        C388   1.257       .  A
O381        C388   1.259       .  A
C382        O389   1.257       .  A
C382        O383   1.261       .  A
C382       C2692   1.492       .  S
C384        O386   1.259       .  A
C384        O390   1.263       .  A
C384       C2740   1.494       .  S
C388       C2701   1.487       .  S
In391       O393   2.261       .  S
In391       O394   2.238       .  S
In391       O402   2.257       .  S
In391       O396   2.269       .  S
In391       O398   2.270       .  S
In391       O399   2.235       .  S
In391       O400   2.240       .  S
In391       O403   2.276       .  S
C392        O398   1.262       .  A
C392        O400   1.260       .  A
C392       C2677   1.488       .  S
O393        C401   1.262       .  A
O394        C401   1.260       .  A
C395        O402   1.258       .  A
C395        O396   1.261       .  A
C395       C3052   1.495       .  S
C397        O399   1.256       .  A
C397        O403   1.262       .  A
C397       C2848   1.487       .  S
C401       C2716   1.481       .  S
In404       O406   2.236       .  S
In404       O407   2.251       .  S
In404       O415   2.251       .  S
In404       O409   2.268       .  S
In404       O411   2.261       .  S
In404       O412   2.232       .  S
In404       O413   2.231       .  S
In404       O416   2.281       .  S
C405        O411   1.263       .  A
C405        O413   1.257       .  A
C405       C2800   1.480       .  S
O406        C414   1.260       .  A
O407        C414   1.262       .  A
C408        O415   1.259       .  A
C408        O409   1.258       .  A
C408       C2665   1.493       .  S
C410        O412   1.258       .  A
C410        O416   1.264       .  A
C410       C2680   1.489       .  S
C414       C2704   1.484       .  S
In417       O419   2.230       .  S
In417       O420   2.252       .  S
In417       O428   2.256       .  S
In417       O422   2.266       .  S
In417       O424   2.281       .  S
In417       O425   2.272       .  S
In417       O426   2.243       .  S
In417       O429   2.252       .  S
C418        O424   1.264       .  A
C418        O426   1.258       .  A
C418       C2653   1.492       .  S
O419        C427   1.260       .  A
O420        C427   1.260       .  A
C421        O428   1.259       .  A
C421        O422   1.258       .  A
C421       C2956   1.494       .  S
C423        O425   1.260       .  A
C423        O429   1.259       .  A
C423       C2641   1.497       .  S
C427       C2629   1.473       .  S
In430       O432   2.236       .  S
In430       O433   2.253       .  S
In430       O441   2.257       .  S
In430       O435   2.281       .  S
In430       O437   2.289       .  S
In430       O438   2.241       .  S
In430       O439   2.226       .  S
In430       O442   2.292       .  S
C431        O437   1.265       .  A
C431        O439   1.258       .  A
C431       C2617   1.484       .  S
O432        C440   1.258       .  A
O433        C440   1.259       .  A
C434        O441   1.258       .  A
C434        O435   1.263       .  A
C434       C2593   1.498       .  S
C436        O438   1.259       .  A
C436        O442   1.265       .  A
C436       C2656   1.498       .  S
C440       C2605   1.478       .  S
In443       O445   2.254       .  S
In443       O446   2.230       .  S
In443       O454   2.260       .  S
In443       O448   2.286       .  S
In443       O450   2.289       .  S
In443       O451   2.245       .  S
In443       O452   2.242       .  S
In443       O455   2.275       .  S
C444        O450   1.264       .  A
C444        O452   1.257       .  A
C444       C2581   1.486       .  S
O445        C453   1.262       .  A
O446        C453   1.260       .  A
C447        O454   1.256       .  A
C447        O448   1.260       .  A
C447       C3100   1.496       .  S
C449        O451   1.260       .  A
C449        O455   1.263       .  A
C449       C2644   1.497       .  S
C453       C2569   1.476       .  S
In456       O458   2.252       .  S
In456       O459   2.247       .  S
In456       O467   2.260       .  S
In456       O461   2.286       .  S
In456       O463   2.277       .  S
In456       O464   2.276       .  S
In456       O465   2.232       .  S
In456       O468   2.253       .  S
C457        O463   1.265       .  A
C457        O465   1.261       .  A
C457       C2620   1.494       .  S
O458        C466   1.262       .  A
O459        C466   1.260       .  A
C460        O467   1.255       .  A
C460        O461   1.259       .  A
C460       C3109   1.494       .  S
C462        O464   1.259       .  A
C462        O468   1.257       .  A
C462       C2557   1.494       .  S
C466       C2572   1.479       .  S
In469       O471   2.250       .  S
In469       O472   2.213       .  S
In469       O480   2.242       .  S
In469       O474   2.260       .  S
In469       O476   2.261       .  S
In469       O477   2.235       .  S
In469       O478   2.232       .  S
In469       O481   2.288       .  S
C470        O476   1.264       .  A
C470        O478   1.256       .  A
C470       C2533   1.479       .  S
O471        C479   1.261       .  A
O472        C479   1.261       .  A
C473        O480   1.258       .  A
C473        O474   1.261       .  A
C473       C3016   1.488       .  S
C475        O477   1.256       .  A
C475        O481   1.262       .  A
C475       C2545   1.491       .  S
C479       C2632   1.475       .  S
In482       O484   2.239       .  S
In482       O485   2.230       .  S
In482       O493   2.261       .  S
In482       O487   2.250       .  S
In482       O489   2.226       .  S
In482       O490   2.259       .  S
In482       O491   2.285       .  S
In482       O494   2.249       .  S
C483        O489   1.256       .  A
C483        O491   1.265       .  A
C483       C2548   1.490       .  S
O484        C492   1.261       .  A
O485        C492   1.260       .  A
C486        O493   1.260       .  A
C486        O487   1.257       .  A
C486       C2512   1.483       .  S
C488        O490   1.263       .  A
C488        O494   1.259       .  A
C488       C2521   1.491       .  S
C492       C2608   1.468       .  S
In495       O497   2.251       .  S
In495       O498   2.244       .  S
In495       O506   2.254       .  S
In495       O500   2.272       .  S
In495       O502   2.264       .  S
In495       O503   2.239       .  S
In495       O504   2.230       .  S
In495       O507   2.287       .  S
C496        O502   1.265       .  A
C496        O504   1.257       .  A
C496       C2536   1.485       .  S
O497        C505   1.262       .  A
O498        C505   1.261       .  A
C499        O506   1.257       .  A
C499        O500   1.259       .  A
C499       C2488   1.491       .  S
C501        O503   1.256       .  A
C501        O507   1.263       .  A
C501       C2584   1.496       .  S
C505       C2497   1.481       .  S
In508       O510   2.248       .  S
In508       O511   2.259       .  S
In508       O519   2.282       .  S
In508       O513   2.245       .  S
In508       O515   2.236       .  S
In508       O516   2.244       .  S
In508       O517   2.269       .  S
In508       O520   2.258       .  S
C509        O515   1.260       .  A
C509        O517   1.264       .  A
C509       C2560   1.483       .  S
O510        C518   1.258       .  A
O511        C518   1.259       .  A
C512        O519   1.261       .  A
C512        O513   1.257       .  A
C512       C2473   1.489       .  S
C514        O516   1.261       .  A
C514        O520   1.261       .  A
C514       C2524   1.492       .  S
C518       C2500   1.481       .  S
In521       O523   2.249       .  S
In521       O524   2.239       .  S
In521       O532   2.257       .  S
In521       O526   2.263       .  S
In521       O528   2.267       .  S
In521       O529   2.246       .  S
In521       O530   2.241       .  S
In521       O533   2.270       .  S
C522        O528   1.263       .  A
C522        O530   1.258       .  A
C522       C2449   1.478       .  S
O523        C531   1.259       .  A
O524        C531   1.260       .  A
C525        O532   1.260       .  A
C525        O526   1.259       .  A
C525       C3352   1.488       .  S
C527        O529   1.260       .  A
C527        O533   1.263       .  A
C527       C2461   1.491       .  S
C531       C2437   1.481       .  S
In534       O536   2.245       .  S
In534       O537   2.244       .  S
In534       O545   2.263       .  S
In534       O539   2.264       .  S
In534       O541   2.258       .  S
In534       O542   2.225       .  S
In534       O543   2.266       .  S
In534       O546   2.263       .  S
C535        O541   1.260       .  A
C535        O543   1.259       .  A
C535       C2464   1.495       .  S
O536        C544   1.259       .  A
O537        C544   1.260       .  A
C538        O545   1.259       .  A
C538        O539   1.259       .  A
C538       C2401   1.492       .  S
C540        O542   1.259       .  A
C540        O546   1.265       .  A
C540       C2425   1.484       .  S
C544       C2413   1.481       .  S
In547       O549   2.245       .  S
In547       O550   2.238       .  S
In547       O558   2.245       .  S
In547       O552   2.265       .  S
In547       O554   2.258       .  S
In547       O555   2.245       .  S
In547       O556   2.221       .  S
In547       O559   2.267       .  S
C548        O554   1.266       .  A
C548        O556   1.260       .  A
C548       C2452   1.477       .  S
O549        C557   1.259       .  A
O550        C557   1.259       .  A
C551        O558   1.256       .  A
C551        O552   1.259       .  A
C551       C2812   1.483       .  S
C553        O555   1.259       .  A
C553        O559   1.260       .  A
C553       C2389   1.492       .  S
C557       C2377   1.480       .  S
In560       O562   2.246       .  S
In560       O563   2.234       .  S
In560       O571   2.246       .  S
In560       O565   2.254       .  S
In560       O567   2.260       .  S
In560       O568   2.246       .  S
In560       O569   2.234       .  S
In560       O572   2.236       .  S
C561        O567   1.263       .  A
C561        O569   1.258       .  A
C561       C2365   1.483       .  S
O562        C570   1.261       .  A
O563        C570   1.259       .  A
C564        O571   1.258       .  A
C564        O565   1.257       .  A
C564       C2776   1.487       .  S
C566        O568   1.261       .  A
C566        O572   1.260       .  A
C566       C2428   1.484       .  S
C570       C2380   1.475       .  S
In573       O575   2.253       .  S
In573       O576   2.244       .  S
In573       O584   2.258       .  S
In573       O578   2.269       .  S
In573       O580   2.273       .  S
In573       O581   2.236       .  S
In573       O582   2.247       .  S
In573       O585   2.271       .  S
C574        O580   1.262       .  A
C574        O582   1.258       .  A
C574       C2392   1.491       .  S
O575        C583   1.262       .  A
O576        C583   1.260       .  A
C577        O584   1.257       .  A
C577        O578   1.260       .  A
C577       C2485   1.493       .  S
C579        O581   1.258       .  A
C579        O585   1.262       .  A
C579       C2341   1.488       .  S
C583       C2353   1.485       .  S
In586       O588   2.244       .  S
In586       O589   2.253       .  S
In586       O597   2.271       .  S
In586       O591   2.257       .  S
In586       O593   2.232       .  S
In586       O594   2.249       .  S
In586       O595   2.268       .  S
In586       O598   2.248       .  S
C587        O593   1.257       .  A
C587        O595   1.262       .  A
C587       C2332   1.479       .  S
O588        C596   1.259       .  A
O589        C596   1.261       .  A
C590        O597   1.260       .  A
C590        O591   1.257       .  A
C590       C2476   1.491       .  S
C592        O594   1.263       .  A
C592        O598   1.261       .  A
C592       C2368   1.491       .  S
C596       C2356   1.479       .  S
In599       O601   2.261       .  S
In599       O602   2.225       .  S
In599       O610   2.254       .  S
In599       O604   2.279       .  S
In599       O606   2.269       .  S
In599       O607   2.251       .  S
In599       O608   2.246       .  S
In599       O611   2.268       .  S
C600        O606   1.261       .  A
C600        O608   1.261       .  A
C600       C2317   1.494       .  S
O601        C609   1.262       .  A
O602        C609   1.259       .  A
C603        O610   1.258       .  A
C603        O604   1.260       .  A
C603       C3316   1.494       .  S
C605        O607   1.257       .  A
C605        O611   1.262       .  A
C605       C2344   1.487       .  S
C609       C2440   1.480       .  S
In612       O614   2.244       .  S
In612       O615   2.227       .  S
In612       O623   2.246       .  S
In612       O617   2.260       .  S
In612       O619   2.260       .  S
In612       O620   2.229       .  S
In612       O621   2.232       .  S
In612       O624   2.278       .  S
C613        O619   1.264       .  A
C613        O621   1.257       .  A
C613       C2329   1.484       .  S
O614        C622   1.262       .  A
O615        C622   1.261       .  A
C616        O623   1.256       .  A
C616        O617   1.258       .  A
C616       C2305   1.486       .  S
C618        O620   1.256       .  A
C618        O624   1.263       .  A
C618       C2320   1.486       .  S
C622       C2416   1.475       .  S
In625       O627   2.242       .  S
In625       O628   2.252       .  S
In625       O636   2.284       .  S
In625       O630   2.244       .  S
In625       O632   2.268       .  S
In625       O633   2.242       .  S
In625       O634   2.252       .  S
In625       O637   2.256       .  S
C626        O632   1.260       .  A
C626        O634   1.260       .  A
C626       C2293   1.494       .  S
O627        C635   1.260       .  A
O628        C635   1.260       .  A
C629        O636   1.260       .  A
C629        O630   1.255       .  A
C629       C3196   1.496       .  S
C631        O633   1.261       .  A
C631        O637   1.263       .  A
C631       C2281   1.481       .  S
C635       C2269   1.480       .  S
In638       O640   2.246       .  S
In638       O641   2.244       .  S
In638       O649   2.268       .  S
In638       O643   2.273       .  S
In638       O645   2.257       .  S
In638       O646   2.239       .  S
In638       O647   2.274       .  S
In638       O650   2.281       .  S
C639        O645   1.259       .  A
C639        O647   1.263       .  A
C639       C2260   1.495       .  S
O640        C648   1.261       .  A
O641        C648   1.261       .  A
C642        O649   1.258       .  A
C642        O643   1.259       .  A
C642       C2404   1.495       .  S
C644        O646   1.258       .  A
C644        O650   1.264       .  A
C644       C2296   1.488       .  S
C648       C2245   1.476       .  S
In651       O653   2.253       .  S
In651       O654   2.245       .  S
In651       O662   2.246       .  S
In651       O656   2.284       .  S
In651       O658   2.275       .  S
In651       O659   2.235       .  S
In651       O660   2.262       .  S
In651       O663   2.261       .  S
C652        O658   1.260       .  A
C652        O660   1.258       .  A
C652       C2233   1.496       .  S
O653        C661   1.260       .  A
O654        C661   1.258       .  A
C655        O662   1.256       .  A
C655        O656   1.260       .  A
C655       C2209   1.491       .  S
C657        O659   1.262       .  A
C657        O663   1.265       .  A
C657       C2284   1.488       .  S
C661       C2221   1.479       .  S
In664       O666   2.247       .  S
In664       O667   2.246       .  S
In664       O675   2.282       .  S
In664       O669   2.246       .  S
In664       O671   2.280       .  S
In664       O672   2.247       .  S
In664       O673   2.239       .  S
In664       O676   2.268       .  S
C665        O671   1.265       .  A
C665        O673   1.259       .  A
C665       C2257   1.490       .  S
O666        C674   1.260       .  A
O667        C674   1.260       .  A
C668        O675   1.261       .  A
C668        O669   1.258       .  A
C668       C2185   1.490       .  S
C670        O672   1.259       .  A
C670        O676   1.260       .  A
C670       C2197   1.493       .  S
C674       C2224   1.478       .  S
In677       O679   2.243       .  S
In677       O680   2.252       .  S
In677       O688   2.242       .  S
In677       O682   2.270       .  S
In677       O684   2.267       .  S
In677       O685   2.238       .  S
In677       O686   2.233       .  S
In677       O689   2.260       .  S
C678        O684   1.266       .  A
C678        O686   1.261       .  A
C678       C2161   1.489       .  S
O679        C687   1.258       .  A
O680        C687   1.259       .  A
C681        O688   1.256       .  A
C681        O682   1.262       .  A
C681       C3244   1.490       .  S
C683        O685   1.256       .  A
C683        O689   1.259       .  A
C683       C2173   1.478       .  S
C687       C2272   1.482       .  S
In690       O692   2.242       .  S
In690       O693   2.241       .  S
In690       O701   2.250       .  S
In690       O695   2.239       .  S
In690       O697   2.230       .  S
In690       O698   2.220       .  S
In690       O699   2.245       .  S
In690       O702   2.272       .  S
C691        O697   1.259       .  A
C691        O699   1.263       .  A
C691       C2176   1.479       .  S
O692        C700   1.262       .  A
O693        C700   1.261       .  A
C694        O701   1.259       .  A
C694        O695   1.258       .  A
C694       C2308   1.481       .  S
C696        O698   1.256       .  A
C696        O702   1.262       .  A
C696       C2149   1.479       .  S
C700       C2248   1.480       .  S
In703       O705   2.250       .  S
In703       O706   2.244       .  S
In703       O714   2.253       .  S
In703       O708   2.265       .  S
In703       O710   2.263       .  S
In703       O711   2.250       .  S
In703       O712   2.259       .  S
In703       O715   2.273       .  S
C704        O710   1.262       .  A
C704        O712   1.260       .  A
C704       C2164   1.490       .  S
O705        C713   1.259       .  A
O706        C713   1.261       .  A
C707        O714   1.257       .  A
C707        O708   1.259       .  A
C707       C2125   1.488       .  S
C709        O711   1.259       .  A
C709        O715   1.263       .  A
C709       C2236   1.487       .  S
C713       C2137   1.474       .  S
In716       O718   2.249       .  S
In716       O719   2.240       .  S
In716       O727   2.259       .  S
In716       O721   2.262       .  S
In716       O723   2.267       .  S
In716       O724   2.252       .  S
In716       O725   2.248       .  S
In716       O728   2.249       .  S
C717        O723   1.261       .  A
C717        O725   1.260       .  A
C717       C2200   1.487       .  S
O718        C726   1.262       .  A
O719        C726   1.261       .  A
C720        O727   1.258       .  A
C720        O721   1.259       .  A
C720       C2113   1.488       .  S
C722        O724   1.258       .  A
C722        O728   1.260       .  A
C722       C2152   1.478       .  S
C726       C2140   1.479       .  S
In729       O731   2.262       .  S
In729       O732   2.254       .  S
In729       O740   2.256       .  S
In729       O734   2.263       .  S
In729       O736   2.248       .  S
In729       O737   2.260       .  S
In729       O738   2.248       .  S
In729       O741   2.239       .  S
C730        O736   1.260       .  A
C730        O738   1.261       .  A
C730       C2089   1.487       .  S
O731        C739   1.260       .  A
O732        C739   1.261       .  A
C733        O740   1.256       .  A
C733        O734   1.259       .  A
C733       C2065   1.488       .  S
C735        O737   1.259       .  A
C735        O741   1.261       .  A
C735       C2101   1.489       .  S
C739       C2077   1.490       .  S
In742       O744   2.242       .  S
In742       O745   2.248       .  S
In742       O753   2.234       .  S
In742       O747   2.278       .  S
In742       O749   2.221       .  S
In742       O750   2.258       .  S
In742       O751   2.259       .  S
In742       O754   2.246       .  S
C743        O749   1.259       .  A
C743        O751   1.264       .  A
C743       C2104   1.477       .  S
O744        C752   1.260       .  A
O745        C752   1.259       .  A
C746        O753   1.256       .  A
C746        O747   1.262       .  A
C746       C2032   1.488       .  S
C748        O750   1.261       .  A
C748        O754   1.256       .  A
C748       C2053   1.488       .  S
C752       C2041   1.485       .  S
In755       O757   2.244       .  S
In755       O758   2.232       .  S
In755       O766   2.267       .  S
In755       O760   2.251       .  S
In755       O762   2.265       .  S
In755       O763   2.258       .  S
In755       O764   2.231       .  S
In755       O767   2.243       .  S
C756        O762   1.263       .  A
C756        O764   1.259       .  A
C756       C2092   1.484       .  S
O757        C765   1.260       .  A
O758        C765   1.259       .  A
C759        O766   1.261       .  A
C759        O760   1.258       .  A
C759       C3508   1.490       .  S
C761        O763   1.261       .  A
C761        O767   1.260       .  A
C761       C2017   1.489       .  S
C765       C2005   1.473       .  S
In768       O770   2.242       .  S
In768       O771   2.242       .  S
In768       O779   2.273       .  S
In768       O773   2.236       .  S
In768       O775   2.277       .  S
In768       O776   2.249       .  S
In768       O777   2.232       .  S
In768       O780   2.242       .  S
C769        O775   1.263       .  A
C769        O777   1.258       .  A
C769       C1993   1.486       .  S
O770        C778   1.258       .  A
O771        C778   1.258       .  A
C772        O779   1.262       .  A
C772        O773   1.258       .  A
C772       C3472   1.487       .  S
C774        O776   1.261       .  A
C774        O780   1.262       .  A
C774       C2056   1.490       .  S
C778       C2008   1.479       .  S
In781       O783   2.252       .  S
In781       O784   2.230       .  S
In781       O792   2.237       .  S
In781       O786   2.268       .  S
In781       O788   2.250       .  S
In781       O789   2.232       .  S
In781       O790   2.257       .  S
In781       O793   2.259       .  S
C782        O788   1.258       .  A
C782        O790   1.261       .  A
C782       C2020   1.491       .  S
O783        C791   1.263       .  A
O784        C791   1.260       .  A
C785        O792   1.257       .  A
C785        O786   1.261       .  A
C785       C2128   1.480       .  S
C787        O789   1.258       .  A
C787        O793   1.263       .  A
C787       C1969   1.483       .  S
C791       C1981   1.476       .  S
In794       O796   2.246       .  S
In794       O797   2.248       .  S
In794       O805   2.263       .  S
In794       O799   2.254       .  S
In794       O801   2.270       .  S
In794       O802   2.257       .  S
In794       O803   2.233       .  S
In794       O806   2.256       .  S
C795        O801   1.264       .  A
C795        O803   1.258       .  A
C795       C1957   1.481       .  S
O796        C804   1.258       .  A
O797        C804   1.261       .  A
C798        O805   1.261       .  A
C798        O799   1.257       .  A
C798       C2116   1.493       .  S
C800        O802   1.261       .  A
C800        O806   1.262       .  A
C800       C1996   1.484       .  S
C804       C1984   1.483       .  S
In807       O809   2.265       .  S
In807       O810   2.251       .  S
In807       O818   2.267       .  S
In807       O812   2.254       .  S
In807       O814   2.279       .  S
In807       O815   2.243       .  S
In807       O816   2.217       .  S
In807       O819   2.274       .  S
C808        O814   1.265       .  A
C808        O816   1.258       .  A
C808       C1945   1.483       .  S
O809        C817   1.261       .  A
O810        C817   1.260       .  A
C811        O818   1.261       .  A
C811        O812   1.257       .  A
C811       C1933   1.495       .  S
C813        O815   1.257       .  A
C813        O819   1.261       .  A
C813       C1972   1.489       .  S
C817       C2080   1.485       .  S
In820       O822   2.243       .  S
In820       O823   2.241       .  S
In820       O831   2.238       .  S
In820       O825   2.279       .  S
In820       O827   2.245       .  S
In820       O828   2.236       .  S
In820       O829   2.248       .  S
In820       O832   2.270       .  S
C821        O827   1.260       .  A
C821        O829   1.262       .  A
C821       C1960   1.487       .  S
O822        C830   1.261       .  A
O823        C830   1.259       .  A
C824        O831   1.255       .  A
C824        O825   1.261       .  A
C824       C1921   1.485       .  S
C826        O828   1.260       .  A
C826        O832   1.261       .  A
C826       C1948   1.491       .  S
C830       C2044   1.483       .  S
In833       O835   2.255       .  S
In833       O836   2.235       .  S
In833       O844   2.266       .  S
In833       O838   2.267       .  S
In833       O840   2.244       .  S
In833       O841   2.230       .  S
In833       O842   2.271       .  S
In833       O845   2.280       .  S
C834        O840   1.257       .  A
C834        O842   1.261       .  A
C834       C1900   1.492       .  S
O835        C843   1.261       .  A
O836        C843   1.259       .  A
C837        O844   1.259       .  A
C837        O838   1.257       .  A
C837       C2689   1.495       .  S
C839        O841   1.259       .  A
C839        O845   1.266       .  A
C839       C1909   1.492       .  S
C843       C1885   1.481       .  S
In846       O848   2.241       .  S
In846       O849   2.250       .  S
In846       O857   2.260       .  S
In846       O851   2.276       .  S
In846       O853   2.243       .  S
In846       O854   2.250       .  S
In846       O855   2.267       .  S
In846       O858   2.261       .  S
C847        O853   1.261       .  A
C847        O855   1.263       .  A
C847       C1912   1.493       .  S
O848        C856   1.259       .  A
O849        C856   1.257       .  A
C850        O857   1.258       .  A
C850        O851   1.261       .  A
C850       C2596   1.497       .  S
C852        O854   1.261       .  A
C852        O858   1.260       .  A
C852       C1873   1.493       .  S
C856       C1861   1.480       .  S
In859       O861   2.259       .  S
In859       O862   2.237       .  S
In859       O870   2.255       .  S
In859       O864   2.254       .  S
In859       O866   2.260       .  S
In859       O867   2.243       .  S
In859       O868   2.238       .  S
In859       O871   2.255       .  S
C860        O866   1.262       .  A
C860        O868   1.259       .  A
C860       C1897   1.483       .  S
O861        C869   1.260       .  A
O862        C869   1.260       .  A
C863        O870   1.259       .  A
C863        O864   1.257       .  A
C863       C1825   1.487       .  S
C865        O867   1.262       .  A
C865        O871   1.261       .  A
C865       C1849   1.491       .  S
C869       C1837   1.486       .  S
In872       O874   2.235       .  S
In872       O875   2.259       .  S
In872       O883   2.263       .  S
In872       O877   2.261       .  S
In872       O879   2.241       .  S
In872       O880   2.258       .  S
In872       O881   2.270       .  S
In872       O884   2.254       .  S
C873        O879   1.259       .  A
C873        O881   1.261       .  A
C873       C1813   1.490       .  S
O874        C882   1.259       .  A
O875        C882   1.261       .  A
C876        O883   1.259       .  A
C876        O877   1.256       .  A
C876       C1801   1.493       .  S
C878        O880   1.261       .  A
C878        O884   1.262       .  A
C878       C1876   1.492       .  S
C882       C1840   1.485       .  S
In885       O887   2.233       .  S
In885       O888   2.249       .  S
In885       O896   2.275       .  S
In885       O890   2.239       .  S
In885       O892   2.238       .  S
In885       O893   2.247       .  S
In885       O894   2.260       .  S
In885       O897   2.253       .  S
C886        O892   1.259       .  A
C886        O894   1.261       .  A
C886       C1789   1.489       .  S
O887        C895   1.260       .  A
O888        C895   1.261       .  A
C889        O896   1.260       .  A
C889        O890   1.255       .  A
C889       C2668   1.487       .  S
C891        O893   1.260       .  A
C891        O897   1.261       .  A
C891       C1777   1.487       .  S
C895       C1888   1.480       .  S
In898       O900   2.251       .  S
In898       O901   2.224       .  S
In898       O909   2.236       .  S
In898       O903   2.265       .  S
In898       O905   2.236       .  S
In898       O906   2.227       .  S
In898       O907   2.266       .  S
In898       O910   2.267       .  S
C899        O905   1.257       .  A
C899        O907   1.261       .  A
C899       C1765   1.489       .  S
O900        C908   1.262       .  A
O901        C908   1.260       .  A
C902        O909   1.256       .  A
C902        O903   1.259       .  A
C902       C2509   1.484       .  S
C904        O906   1.257       .  A
C904        O910   1.264       .  A
C904       C1792   1.479       .  S
C908       C1864   1.472       .  S
In911       O913   2.243       .  S
In911       O914   2.248       .  S
In911       O922   2.241       .  S
In911       O916   2.272       .  S
In911       O918   2.224       .  S
In911       O919   2.257       .  S
In911       O920   2.274       .  S
In911       O923   2.249       .  S
C912        O918   1.257       .  A
C912        O920   1.265       .  A
C912       C1852   1.481       .  S
O913        C921   1.258       .  A
O914        C921   1.259       .  A
C915        O922   1.258       .  A
C915        O916   1.262       .  A
C915       C1741   1.491       .  S
C917        O919   1.261       .  A
C917        O923   1.259       .  A
C917       C1780   1.492       .  S
C921       C1753   1.478       .  S
In924       O926   2.244       .  S
In924       O927   2.241       .  S
In924       O935   2.237       .  S
In924       O929   2.265       .  S
In924       O931   2.258       .  S
In924       O932   2.224       .  S
In924       O933   2.253       .  S
In924       O936   2.270       .  S
C925        O931   1.261       .  A
C925        O933   1.259       .  A
C925       C1768   1.489       .  S
O926        C934   1.259       .  A
O927        C934   1.261       .  A
C928        O935   1.255       .  A
C928        O929   1.261       .  A
C928       C1729   1.487       .  S
C930        O932   1.259       .  A
C930        O936   1.264       .  A
C930       C1816   1.482       .  S
C934       C1756   1.484       .  S
In937       O939   2.248       .  S
In937       O940   2.240       .  S
In937       O948   2.273       .  S
In937       O942   2.241       .  S
In937       O944   2.262       .  S
In937       O945   2.239       .  S
In937       O946   2.240       .  S
In937       O949   2.251       .  S
C938        O944   1.261       .  A
C938        O946   1.258       .  A
C938       C1717   1.475       .  S
O939        C947   1.259       .  A
O940        C947   1.260       .  A
C941        O948   1.261       .  A
C941        O942   1.257       .  A
C941       C1681   1.484       .  S
C943        O945   1.261       .  A
C943        O949   1.263       .  A
C943       C1705   1.489       .  S
C947       C1693   1.477       .  S
In950       O952   2.251       .  S
In950       O953   2.244       .  S
In950       O961   2.257       .  S
In950       O955   2.263       .  S
In950       O957   2.274       .  S
In950       O958   2.237       .  S
In950       O959   2.226       .  S
In950       O962   2.261       .  S
C951        O957   1.263       .  A
C951        O959   1.257       .  A
C951       C1669   1.484       .  S
O952        C960   1.262       .  A
O953        C960   1.259       .  A
C954        O961   1.258       .  A
C954        O955   1.257       .  A
C954       C2029   1.487       .  S
C956        O958   1.259       .  A
C956        O962   1.262       .  A
C956       C1720   1.482       .  S
C960       C1657   1.478       .  S
In963       O965   2.266       .  S
In963       O966   2.218       .  S
In963       O974   2.252       .  S
In963       O968   2.272       .  S
In963       O970   2.276       .  S
In963       O971   2.236       .  S
In963       O972   2.224       .  S
In963       O975   2.279       .  S
C964        O970   1.263       .  A
C964        O972   1.257       .  A
C964       C1672   1.475       .  S
O965        C973   1.262       .  A
O966        C973   1.258       .  A
C967        O974   1.258       .  A
C967        O968   1.261       .  A
C967       C2872   1.494       .  S
C969        O971   1.258       .  A
C969        O975   1.264       .  A
C969       C1645   1.488       .  S
C973       C1636   1.476       .  S
In976       O978   2.234       .  S
In976       O979   2.246       .  S
In976       O987   2.273       .  S
In976       O981   2.247       .  S
In976       O983   2.283       .  S
In976       O984   2.231       .  S
In976       O985   2.224       .  S
In976       O988   2.253       .  S
C977        O983   1.265       .  A
C977        O985   1.258       .  A
C977       C1621   1.486       .  S
O978        C986   1.261       .  A
O979        C986   1.258       .  A
C980        O987   1.260       .  A
C980        O981   1.256       .  A
C980       C2860   1.485       .  S
C982        O984   1.262       .  A
C982        O988   1.263       .  A
C982       C1708   1.490       .  S
C986       C1633   1.479       .  S
In989       O991   2.242       .  S
In989       O992   2.255       .  S
In989      O1000   2.262       .  S
In989       O994   2.264       .  S
In989       O996   2.266       .  S
In989       O997   2.280       .  S
In989       O998   2.239       .  S
In989      O1001   2.230       .  S
C990        O996   1.261       .  A
C990        O998   1.258       .  A
C990       C1597   1.486       .  S
O991        C999   1.258       .  A
O992        C999   1.262       .  A
C993       O1000   1.259       .  A
C993        O994   1.258       .  A
C993       C1744   1.490       .  S
C995        O997   1.264       .  A
C995       O1001   1.258       .  A
C995       C1624   1.486       .  S
C999       C1609   1.482       .  S
In1002     O1004   2.251       .  S
In1002     O1005   2.242       .  S
In1002     O1013   2.256       .  S
In1002     O1007   2.265       .  S
In1002     O1009   2.270       .  S
In1002     O1010   2.240       .  S
In1002     O1011   2.240       .  S
In1002     O1014   2.262       .  S
C1003      O1009   1.265       .  A
C1003      O1011   1.261       .  A
C1003      C1648   1.489       .  S
O1004      C1012   1.260       .  A
O1005      C1012   1.260       .  A
C1006      O1013   1.256       .  A
C1006      O1007   1.258       .  A
C1006      C1732   1.486       .  S
C1008      O1010   1.259       .  A
C1008      O1014   1.263       .  A
C1008      C1585   1.490       .  S
C1012      C1612   1.483       .  S
In1015     O1017   2.232       .  S
In1015     O1018   2.255       .  S
In1015     O1026   2.258       .  S
In1015     O1020   2.271       .  S
In1015     O1022   2.269       .  S
In1015     O1023   2.237       .  S
In1015     O1024   2.236       .  S
In1015     O1027   2.285       .  S
C1016      O1022   1.266       .  A
C1016      O1024   1.260       .  A
C1016      C1600   1.494       .  S
O1017      C1025   1.257       .  A
O1018      C1025   1.260       .  A
C1019      O1026   1.257       .  A
C1019      O1020   1.261       .  A
C1019      C1561   1.483       .  S
C1021      O1023   1.258       .  A
C1021      O1027   1.264       .  A
C1021      C1573   1.497       .  S
C1025      C1696   1.475       .  S
In1028     O1030   2.254       .  S
In1028     O1031   2.236       .  S
In1028     O1039   2.254       .  S
In1028     O1033   2.269       .  S
In1028     O1035   2.269       .  S
In1028     O1036   2.232       .  S
In1028     O1037   2.232       .  S
In1028     O1040   2.280       .  S
C1029      O1035   1.266       .  A
C1029      O1037   1.261       .  A
C1029      C1576   1.485       .  S
O1030      C1038   1.259       .  A
O1031      C1038   1.257       .  A
C1032      O1039   1.256       .  A
C1032      O1033   1.260       .  A
C1032      C1924   1.488       .  S
C1034      O1036   1.257       .  A
C1034      O1040   1.262       .  A
C1034      C1588   1.490       .  S
C1038      C1660   1.472       .  S
In1041     O1043   2.233       .  S
In1041     O1044   2.242       .  S
In1041     O1052   2.268       .  S
In1041     O1046   2.240       .  S
In1041     O1048   2.247       .  S
In1041     O1049   2.226       .  S
In1041     O1050   2.265       .  S
In1041     O1053   2.283       .  S
C1042      O1048   1.256       .  A
C1042      O1050   1.260       .  A
C1042      C1525   1.480       .  S
O1043      C1051   1.262       .  A
O1044      C1051   1.262       .  A
C1045      O1052   1.261       .  A
C1045      O1046   1.256       .  A
C1045      C1828   1.485       .  S
C1047      O1049   1.257       .  A
C1047      O1053   1.265       .  A
C1047      C1549   1.493       .  S
C1051      C1537   1.479       .  S
In1054     O1056   2.247       .  S
In1054     O1057   2.239       .  S
In1054     O1065   2.275       .  S
In1054     O1059   2.242       .  S
In1054     O1061   2.260       .  S
In1054     O1062   2.240       .  S
In1054     O1063   2.239       .  S
In1054     O1066   2.255       .  S
C1055      O1061   1.263       .  A
C1055      O1063   1.258       .  A
C1055      C1513   1.484       .  S
O1056      C1064   1.261       .  A
O1057      C1064   1.259       .  A
C1058      O1065   1.260       .  A
C1058      O1059   1.256       .  A
C1058      C1804   1.492       .  S
C1060      O1062   1.259       .  A
C1060      O1066   1.263       .  A
C1060      C1501   1.484       .  S
C1064      C1540   1.479       .  S
In1067     O1069   2.242       .  S
In1067     O1070   2.243       .  S
In1067     O1078   2.229       .  S
In1067     O1072   2.272       .  S
In1067     O1074   2.240       .  S
In1067     O1075   2.269       .  S
In1067     O1076   2.257       .  S
In1067     O1079   2.233       .  S
C1068      O1074   1.258       .  A
C1068      O1076   1.263       .  A
C1068      C1489   1.481       .  S
O1069      C1077   1.261       .  A
O1070      C1077   1.259       .  A
C1071      O1078   1.257       .  A
C1071      O1072   1.262       .  A
C1071      C2920   1.482       .  S
C1073      O1075   1.262       .  A
C1073      O1079   1.259       .  A
C1073      C1528   1.478       .  S
C1077      C1477   1.481       .  S
In1080     O1082   2.248       .  S
In1080     O1083   2.236       .  S
In1080     O1091   2.236       .  S
In1080     O1085   2.261       .  S
In1080     O1087   2.252       .  S
In1080     O1088   2.222       .  S
In1080     O1089   2.244       .  S
In1080     O1092   2.254       .  S
C1081      O1087   1.260       .  A
C1081      O1089   1.262       .  A
C1081      C1504   1.487       .  S
O1082      C1090   1.258       .  A
O1083      C1090   1.260       .  A
C1084      O1091   1.255       .  A
C1084      O1085   1.261       .  A
C1084      C2896   1.488       .  S
C1086      O1088   1.258       .  A
C1086      O1092   1.263       .  A
C1086      C1465   1.469       .  S
C1090      C1480   1.479       .  S
In1093     O1095   2.242       .  S
In1093     O1096   2.242       .  S
In1093     O1104   2.258       .  S
In1093     O1098   2.257       .  S
In1093     O1100   2.260       .  S
In1093     O1101   2.240       .  S
In1093     O1102   2.233       .  S
In1093     O1105   2.260       .  S
C1094      O1100   1.263       .  A
C1094      O1102   1.259       .  A
C1094      C1492   1.479       .  S
O1095      C1103   1.260       .  A
O1096      C1103   1.260       .  A
C1097      O1104   1.259       .  A
C1097      O1098   1.258       .  A
C1097      C1429   1.490       .  S
C1099      O1101   1.259       .  A
C1099      O1105   1.261       .  A
C1099      C1453   1.481       .  S
C1103      C1441   1.476       .  S
In1106     O1108   2.238       .  S
In1106     O1109   2.238       .  S
In1106     O1117   2.250       .  S
In1106     O1111   2.262       .  S
In1106     O1113   2.261       .  S
In1106     O1114   2.236       .  S
In1106     O1115   2.231       .  S
In1106     O1118   2.249       .  S
C1107      O1113   1.262       .  A
C1107      O1115   1.259       .  A
C1107      C1456   1.477       .  S
O1108      C1116   1.260       .  A
O1109      C1116   1.261       .  A
C1110      O1117   1.256       .  A
C1110      O1111   1.259       .  A
C1110      C2068   1.491       .  S
C1112      O1114   1.258       .  A
C1112      O1118   1.262       .  A
C1112      C1468   1.479       .  S
C1116      C1417   1.482       .  S
In1119     O1121   2.242       .  S
In1119     O1122   2.248       .  S
In1119     O1130   2.264       .  S
In1119     O1124   2.272       .  S
In1119     O1126   2.257       .  S
In1119     O1127   2.273       .  S
In1119     O1128   2.245       .  S
In1119     O1131   2.226       .  S
C1120      O1126   1.262       .  A
C1120      O1128   1.262       .  A
C1120      C1405   1.491       .  S
O1121      C1129   1.259       .  A
O1122      C1129   1.259       .  A
C1123      O1130   1.256       .  A
C1123      O1124   1.259       .  A
C1123      C1393   1.494       .  S
C1125      O1127   1.265       .  A
C1125      O1131   1.258       .  A
C1125      C1552   1.479       .  S
C1129      C1444   1.478       .  S
In1132     O1134   2.238       .  S
In1132     O1135   2.247       .  S
In1132     O1143   2.267       .  S
In1132     O1137   2.255       .  S
In1132     O1139   2.235       .  S
In1132     O1140   2.244       .  S
In1132     O1141   2.254       .  S
In1132     O1144   2.267       .  S
C1133      O1139   1.260       .  A
C1133      O1141   1.265       .  A
C1133      C1516   1.483       .  S
O1134      C1142   1.258       .  A
O1135      C1142   1.261       .  A
C1136      O1143   1.259       .  A
C1136      O1137   1.257       .  A
C1136      C1936   1.488       .  S
C1138      O1140   1.258       .  A
C1138      O1144   1.262       .  A
C1138      C1408   1.489       .  S
C1142      C1420   1.480       .  S
In1145     O1147   2.259       .  S
In1145     O1148   2.236       .  S
In1145     O1156   2.256       .  S
In1145     O1150   2.268       .  S
In1145     O1152   2.282       .  S
In1145     O1153   2.255       .  S
In1145     O1154   2.234       .  S
In1145     O1157   2.263       .  S
C1146      O1152   1.263       .  A
C1146      O1154   1.257       .  A
C1146      C1357   1.483       .  S
O1147      C1155   1.260       .  A
O1148      C1155   1.260       .  A
C1149      O1156   1.261       .  A
C1149      O1150   1.261       .  A
C1149      C2188   1.494       .  S
C1151      O1153   1.258       .  A
C1151      O1157   1.261       .  A
C1151      C1381   1.488       .  S
C1155      C1369   1.478       .  S
In1158     O1160   2.237       .  S
In1158     O1161   2.259       .  S
In1158     O1169   2.258       .  S
In1158     O1163   2.271       .  S
In1158     O1165   2.250       .  S
In1158     O1166   2.241       .  S
In1158     O1167   2.258       .  S
In1158     O1170   2.284       .  S
C1159      O1165   1.260       .  A
C1159      O1167   1.260       .  A
C1159      C1345   1.487       .  S
O1160      C1168   1.261       .  A
O1161      C1168   1.261       .  A
C1162      O1169   1.260       .  A
C1162      O1163   1.258       .  A
C1162      C2212   1.493       .  S
C1164      O1166   1.257       .  A
C1164      O1170   1.263       .  A
C1164      C1333   1.492       .  S
C1168      C1372   1.476       .  S
In1171     O1173   2.252       .  S
In1171     O1174   2.251       .  S
In1171     O1182   2.267       .  S
In1171     O1176   2.267       .  S
In1171     O1178   2.250       .  S
In1171     O1179   2.241       .  S
In1171     O1180   2.274       .  S
In1171     O1183   2.278       .  S
C1172      O1178   1.261       .  A
C1172      O1180   1.262       .  A
C1172      C1336   1.497       .  S
O1173      C1181   1.262       .  A
O1174      C1181   1.259       .  A
C1175      O1182   1.258       .  A
C1175      O1176   1.257       .  A
C1175      C3436   1.497       .  S
C1177      O1179   1.258       .  A
C1177      O1183   1.264       .  A
C1177      C1321   1.484       .  S
C1181      C1309   1.490       .  S
In1184     O1186   2.263       .  S
In1184     O1187   2.247       .  S
In1184     O1195   2.271       .  S
In1184     O1189   2.242       .  S
In1184     O1191   2.274       .  S
In1184     O1192   2.234       .  S
In1184     O1193   2.239       .  S
In1184     O1196   2.262       .  S
C1185      O1191   1.264       .  A
C1185      O1193   1.258       .  A
C1185      C1297   1.487       .  S
O1186      C1194   1.260       .  A
O1187      C1194   1.258       .  A
C1188      O1195   1.259       .  A
C1188      O1189   1.258       .  A
C1188      C3412   1.483       .  S
C1190      O1192   1.261       .  A
C1190      O1196   1.263       .  A
C1190      C1360   1.487       .  S
C1194      C1312   1.482       .  S
In1197     O1199   2.252       .  S
In1197     O1200   2.231       .  S
In1197     O1208   2.288       .  S
In1197     O1202   2.224       .  S
In1197     O1204   2.269       .  S
In1197     O1205   2.236       .  S
In1197     O1206   2.263       .  S
In1197     O1209   2.270       .  S
C1198      O1204   1.259       .  A
C1198      O1206   1.258       .  A
C1198      C1285   1.491       .  S
O1199      C1207   1.262       .  A
O1200      C1207   1.259       .  A
C1201      O1208   1.265       .  A
C1201      O1202   1.255       .  A
C1201      C1432   1.488       .  S
C1203      O1205   1.257       .  A
C1203      O1209   1.266       .  A
C1203      C1324   1.486       .  S
C1207      C1273   1.478       .  S
In1210     O1212   2.237       .  S
In1210     O1213   2.264       .  S
In1210     O1221   2.266       .  S
In1210     O1215   2.257       .  S
In1210     O1217   2.246       .  S
In1210     O1218   2.253       .  S
In1210     O1219   2.262       .  S
In1210     O1222   2.273       .  S
C1211      O1217   1.260       .  A
C1211      O1219   1.263       .  A
C1211      C1300   1.485       .  S
O1212      C1220   1.260       .  A
O1213      C1220   1.261       .  A
C1214      O1221   1.261       .  A
C1214      O1215   1.258       .  A
C1214      C1684   1.489       .  S
C1216      O1218   1.258       .  A
C1216      O1222   1.261       .  A
C1216      C1288   1.490       .  S
C1220      C1261   1.483       .  S
In1223     O1225   2.248       .  S
In1223     O1226   2.246       .  S
In1223     O1234   2.251       .  S
In1223     O1228   2.274       .  S
In1223     O1230   2.257       .  S
In1223     O1231   2.272       .  S
In1223     O1232   2.230       .  S
In1223     O1235   2.248       .  S
C1224      O1230   1.266       .  A
C1224      O1232   1.261       .  A
C1224      C1348   1.488       .  S
O1225      C1233   1.258       .  A
O1226      C1233   1.258       .  A
C1227      O1234   1.258       .  A
C1227      O1228   1.261       .  A
C1227      C1396   1.487       .  S
C1229      O1231   1.261       .  A
C1229      O1235   1.257       .  A
C1229      C1249   1.488       .  S
C1233      C1276   1.478       .  S
In1236     O1238   2.269       .  S
In1236     O1239   2.238       .  S
In1236     O1247   2.274       .  S
In1236     O1241   2.266       .  S
In1236     O1243   2.267       .  S
In1236     O1244   2.248       .  S
In1236     O1245   2.240       .  S
In1236     O1248   2.279       .  S
C1237      O1243   1.263       .  A
C1237      O1245   1.259       .  A
C1237      C1252   1.487       .  S
O1238      C1246   1.262       .  A
O1239      C1246   1.260       .  A
C1240      O1247   1.261       .  A
C1240      O1241   1.256       .  A
C1240      C1564   1.497       .  S
C1242      O1244   1.258       .  A
C1242      O1248   1.263       .  A
C1242      C1384   1.487       .  S
C1246      C1264   1.488       .  S
C1249      C1250   1.405       .  A
C1249      C1254   1.416   1_565  A
C1250      C1251   1.402   1_565  A
C1250      H1259   1.078       .  S
C1251      C1252   1.416       .  A
C1251      S1255   1.803       .  S
C1252      C1253   1.405       .  A
C1253      C1254   1.403       .  A
C1253      H1260   1.081       .  S
C1254      S1256   1.803   1_545  S
S1255      H1258   1.408       .  S
S1256      H1257   1.408       .  S
C1261      C1262   1.406       .  A
C1261      C1266   1.413       .  A
C1262      C1263   1.405       .  A
C1262      H1271   1.081       .  S
C1263      C1264   1.417       .  A
C1263      S1267   1.802       .  S
C1264      C1265   1.406       .  A
C1265      C1266   1.397       .  A
C1265      H1272   1.081       .  S
C1266      S1268   1.804       .  S
S1267      H1270   1.407       .  S
S1268      H1269   1.408       .  S
C1273      C1274   1.405       .  A
C1273      C1278   1.412       .  A
C1274      C1275   1.401       .  A
C1274      H1283   1.081       .  S
C1275      C1276   1.412       .  A
C1275      S1279   1.809       .  S
C1276      C1277   1.405       .  A
C1277      C1278   1.402       .  A
C1277      H1284   1.082       .  S
C1278      S1280   1.808       .  S
S1279      H1282   1.407       .  S
S1280      H1281   1.407       .  S
C1285      C1286   1.406       .  A
C1285      C1290   1.416   1_565  A
C1286      C1287   1.403   1_565  A
C1286      H1295   1.080       .  S
C1287      C1288   1.415       .  A
C1287      S1291   1.802       .  S
C1288      C1289   1.406       .  A
C1289      C1290   1.404       .  A
C1289      H1296   1.081       .  S
C1290      S1292   1.802   1_545  S
S1291      H1294   1.408       .  S
S1292      H1293   1.408       .  S
C1297      C1298   1.405       .  A
C1297      C1302   1.416       .  A
C1298      C1299   1.408       .  A
C1298      H1307   1.079       .  S
C1299      C1300   1.414       .  A
C1299      S1303   1.807       .  S
C1300      C1301   1.403       .  A
C1301      C1302   1.401       .  A
C1301      H1308   1.081       .  S
C1302      S1304   1.803       .  S
S1303      H1306   1.407       .  S
S1304      H1305   1.407       .  S
C1309      C1310   1.407       .  A
C1309      C1314   1.419       .  A
C1310      C1311   1.400   1_565  A
C1310      H1319   1.080       .  S
C1311      C1312   1.413       .  A
C1311      S1315   1.804       .  S
C1312      C1313   1.403       .  A
C1313      C1314   1.402   1_545  A
C1313      H1320   1.083       .  S
C1314      S1316   1.801       .  S
S1315      H1318   1.407       .  S
S1316      H1317   1.408       .  S
C1321      C1322   1.402       .  A
C1321      C1326   1.414       .  A
C1322      C1323   1.403       .  A
C1322      H1331   1.087       .  S
C1323      C1324   1.418       .  A
C1323      S1327   1.803       .  S
C1324      C1325   1.404       .  A
C1325      C1326   1.405       .  A
C1325      H1332   1.082       .  S
C1326      S1328   1.808       .  S
S1327      H1330   1.407       .  S
S1328      H1329   1.407       .  S
C1333      C1334   1.407       .  A
C1333      C1338   1.416       .  A
C1334      C1335   1.408       .  A
C1334      H1343   1.082       .  S
C1335      C1336   1.419       .  A
C1335      S1339   1.800       .  S
C1336      C1337   1.406       .  A
C1337      C1338   1.400       .  A
C1337      H1344   1.083       .  S
C1338      S1340   1.803       .  S
S1339      H1342   1.408       .  S
S1340      H1341   1.408       .  S
C1345      C1346   1.406       .  A
C1345      C1350   1.414       .  A
C1346      C1347   1.407       .  A
C1346      H1355   1.079       .  S
C1347      C1348   1.415       .  A
C1347      S1351   1.808       .  S
C1348      C1349   1.406       .  A
C1349      C1350   1.400       .  A
C1349      H1356   1.080       .  S
C1350      S1352   1.801       .  S
S1351      H1354   1.406       .  S
S1352      H1353   1.407       .  S
C1357      C1358   1.406       .  A
C1357      C1362   1.413       .  A
C1358      C1359   1.406       .  A
C1358      H1367   1.087       .  S
C1359      C1360   1.417       .  A
C1359      S1363   1.802       .  S
C1360      C1361   1.405       .  A
C1361      C1362   1.397       .  A
C1361      H1368   1.084       .  S
C1362      S1364   1.803       .  S
S1363      H1366   1.407       .  S
S1364      H1365   1.407       .  S
C1369      C1370   1.406       .  A
C1369      C1374   1.412       .  A
C1370      C1371   1.403   1_545  A
C1370      H1379   1.077       .  S
C1371      C1372   1.414       .  A
C1371      S1375   1.803       .  S
C1372      C1373   1.403       .  A
C1373      C1374   1.397   1_565  A
C1373      H1380   1.079       .  S
C1374      S1376   1.804       .  S
S1375      H1378   1.407       .  S
S1376      H1377   1.408       .  S
C1381      C1382   1.405       .  A
C1381      C1386   1.417       .  A
C1382      C1383   1.402       .  A
C1382      H1391   1.081       .  S
C1383      C1384   1.415       .  A
C1383      S1387   1.803       .  S
C1384      C1385   1.405       .  A
C1385      C1386   1.405       .  A
C1385      H1392   1.082       .  S
C1386      S1388   1.802       .  S
S1387      H1390   1.407       .  S
S1388      H1389   1.407       .  S
C1393      C1394   1.407       .  A
C1393      C1398   1.419       .  A
C1394      C1395   1.403       .  A
C1394      H1403   1.081       .  S
C1395      C1396   1.413       .  A
C1395      S1399   1.803       .  S
C1396      C1397   1.405       .  A
C1397      C1398   1.405       .  A
C1397      H1404   1.081       .  S
C1398      S1400   1.802       .  S
S1399      H1402   1.407       .  S
S1400      H1401   1.407       .  S
C1405      C1406   1.405       .  A
C1405      C1410   1.418       .  A
C1406      C1407   1.400   1_655  A
C1406      H1415   1.091       .  S
C1407      C1408   1.416       .  A
C1407      S1411   1.802       .  S
C1408      C1409   1.404       .  A
C1409      C1410   1.402   1_455  A
C1409      H1416   1.091       .  S
C1410      S1412   1.800       .  S
S1411      H1414   1.408       .  S
S1412      H1413   1.408       .  S
C1417      C1418   1.405       .  A
C1417      C1422   1.415       .  A
C1418      C1419   1.397       .  A
C1418      H1427   1.085       .  S
C1419      C1420   1.415       .  A
C1419      S1423   1.803       .  S
C1420      C1421   1.403       .  A
C1421      C1422   1.397       .  A
C1421      H1428   1.086       .  S
C1422      S1424   1.802       .  S
S1423      H1426   1.408       .  S
S1424      H1425   1.408       .  S
C1429      C1430   1.404       .  A
C1429      C1434   1.417       .  A
C1430      C1431   1.399       .  A
C1430      H1439   1.085       .  S
C1431      C1432   1.416       .  A
C1431      S1435   1.804       .  S
C1432      C1433   1.404       .  A
C1433      C1434   1.409       .  A
C1433      H1440   1.086       .  S
C1434      S1436   1.807       .  S
S1435      H1438   1.408       .  S
S1436      H1437   1.407       .  S
C1441      C1442   1.404       .  A
C1441      C1446   1.413       .  A
C1442      C1443   1.398       .  A
C1442      H1451   1.083       .  S
C1443      C1444   1.414       .  A
C1443      S1447   1.802       .  S
C1444      C1445   1.405       .  A
C1445      C1446   1.397       .  A
C1445      H1452   1.084       .  S
C1446      S1448   1.803       .  S
S1447      H1450   1.407       .  S
S1448      H1449   1.407       .  S
C1453      C1454   1.406       .  A
C1453      C1458   1.413       .  A
C1454      C1455   1.402   1_655  A
C1454      H1463   1.084       .  S
C1455      C1456   1.415       .  A
C1455      S1459   1.804       .  S
C1456      C1457   1.403       .  A
C1457      C1458   1.398   1_455  A
C1457      H1464   1.084       .  S
C1458      S1460   1.802       .  S
S1459      H1462   1.408       .  S
S1460      H1461   1.407       .  S
C1465      C1466   1.401       .  A
C1465      C1470   1.410       .  A
C1466      C1467   1.403       .  A
C1466      H1475   1.081       .  S
C1467      C1468   1.417       .  A
C1467      S1471   1.809       .  S
C1468      C1469   1.404       .  A
C1469      C1470   1.397       .  A
C1469      H1476   1.079       .  S
C1470      S1472   1.805       .  S
S1471      H1474   1.407       .  S
S1472      H1473   1.407       .  S
C1477      C1478   1.405       .  A
C1477      C1482   1.415       .  A
C1478      C1479   1.399   1_655  A
C1478      H1487   1.084       .  S
C1479      C1480   1.415       .  A
C1479      S1483   1.802       .  S
C1480      C1481   1.403       .  A
C1481      C1482   1.396   1_455  A
C1481      H1488   1.084       .  S
C1482      S1484   1.802       .  S
S1483      H1486   1.408       .  S
S1484      H1485   1.408       .  S
C1489      C1490   1.404       .  A
C1489      C1494   1.416       .  A
C1490      C1491   1.399       .  A
C1490      H1499   1.083       .  S
C1491      C1492   1.414       .  A
C1491      S1495   1.803       .  S
C1492      C1493   1.403       .  A
C1493      C1494   1.401       .  A
C1493      H1500   1.085       .  S
C1494      S1496   1.803       .  S
S1495      H1498   1.407       .  S
S1496      H1497   1.407       .  S
C1501      C1502   1.405       .  A
C1501      C1506   1.413       .  A
C1502      C1503   1.401       .  A
C1502      H1511   1.075       .  S
C1503      C1504   1.417       .  A
C1503      S1507   1.802       .  S
C1504      C1505   1.406       .  A
C1505      C1506   1.405       .  A
C1505      H1512   1.074       .  S
C1506      S1508   1.808       .  S
S1507      H1510   1.408       .  S
S1508      H1509   1.407       .  S
C1513      C1514   1.403       .  A
C1513      C1518   1.416       .  A
C1514      C1515   1.399       .  A
C1514      H1523   1.089       .  S
C1515      C1516   1.416       .  A
C1515      S1519   1.803       .  S
C1516      C1517   1.403       .  A
C1517      C1518   1.404       .  A
C1517      H1524   1.085       .  S
C1518      S1520   1.808       .  S
S1519      H1522   1.407       .  S
S1520      H1521   1.407       .  S
C1525      C1526   1.403       .  A
C1525      C1530   1.414       .  A
C1526      C1527   1.398       .  A
C1526      H1535   1.081       .  S
C1527      C1528   1.412       .  A
C1527      S1531   1.804       .  S
C1528      C1529   1.404       .  A
C1529      C1530   1.407       .  A
C1529      H1536   1.081       .  S
C1530      S1532   1.807       .  S
S1531      H1534   1.407       .  S
S1532      H1533   1.407       .  S
C1537      C1538   1.404       .  A
C1537      C1542   1.414       .  A
C1538      C1539   1.400   1_655  A
C1538      H1547   1.089       .  S
C1539      C1540   1.414       .  A
C1539      S1543   1.809       .  S
C1540      C1541   1.403       .  A
C1541      C1542   1.397   1_455  A
C1541      H1548   1.089       .  S
C1542      S1544   1.802       .  S
S1543      H1546   1.407       .  S
S1544      H1545   1.408       .  S
C1549      C1550   1.407       .  A
C1549      C1554   1.418       .  A
C1550      C1551   1.395       .  A
C1550      H1559   1.085       .  S
C1551      C1552   1.412       .  A
C1551      S1555   1.806       .  S
C1552      C1553   1.404       .  A
C1553      C1554   1.406       .  A
C1553      H1560   1.086       .  S
C1554      S1556   1.799       .  S
S1555      H1558   1.404       .  S
S1556      H1557   1.407       .  S
C1561      C1562   1.404       .  A
C1561      C1566   1.413       .  A
C1562      C1563   1.408       .  A
C1562      H1571   1.081       .  S
C1563      C1564   1.421       .  A
C1563      S1567   1.802       .  S
C1564      C1565   1.406       .  A
C1565      C1566   1.401       .  A
C1565      H1572   1.081       .  S
C1566      S1568   1.803       .  S
S1567      H1570   1.408       .  S
S1568      H1569   1.407       .  S
C1573      C1574   1.408       .  A
C1573      C1578   1.419       .  A
C1574      C1575   1.399   1_655  A
C1574      H1583   1.082       .  S
C1575      C1576   1.412       .  A
C1575      S1579   1.804       .  S
C1576      C1577   1.405       .  A
C1577      C1578   1.408   1_455  A
C1577      H1584   1.082       .  S
C1578      S1580   1.799       .  S
S1579      H1582   1.406       .  S
S1580      H1581   1.407       .  S
C1585      C1586   1.408       .  A
C1585      C1590   1.413       .  A
C1586      C1587   1.402       .  A
C1586      H1595   1.082       .  S
C1587      C1588   1.415       .  A
C1587      S1591   1.800       .  S
C1588      C1589   1.408       .  A
C1589      C1590   1.401       .  A
C1589      H1596   1.083       .  S
C1590      S1592   1.801       .  S
S1591      H1594   1.407       .  S
S1592      H1593   1.407       .  S
C1597      C1598   1.406       .  A
C1597      C1602   1.415       .  A
C1598      C1599   1.403       .  A
C1598      H1607   1.084       .  S
C1599      C1600   1.415       .  A
C1599      S1603   1.800       .  S
C1600      C1601   1.409       .  A
C1601      C1602   1.401       .  A
C1601      H1608   1.084       .  S
C1602      S1604   1.802       .  S
S1603      H1606   1.408       .  S
S1604      H1605   1.407       .  S
C1609      C1610   1.403   1_655  A
C1609      C1614   1.416   1_655  A
C1610      C1611   1.399       .  A
C1610      H1619   1.085   1_455  S
C1611      C1612   1.415       .  A
C1611      S1615   1.801       .  S
C1612      C1613   1.405       .  A
C1613      C1614   1.398       .  A
C1613      H1620   1.085       .  S
C1614      S1616   1.803   1_455  S
S1615      H1618   1.408       .  S
S1616      H1617   1.408       .  S
C1621      C1622   1.404       .  A
C1621      C1626   1.415       .  A
C1622      C1623   1.400       .  A
C1622      H1631   1.080       .  S
C1623      C1624   1.414       .  A
C1623      S1627   1.810       .  S
C1624      C1625   1.408       .  A
C1625      C1626   1.408       .  A
C1625      H1632   1.080       .  S
C1626      S1628   1.801       .  S
S1627      H1630   1.407       .  S
S1628      H1629   1.407       .  S
C1633      C1634   1.402       .  A
C1633      C1638   1.417       .  A
C1634      C1635   1.393   1_655  A
C1634      H1643   1.084       .  S
C1635      C1636   1.413       .  A
C1635      S1639   1.804       .  S
C1636      C1637   1.404       .  A
C1637      C1638   1.403   1_455  A
C1637      H1644   1.084       .  S
C1638      S1640   1.803       .  S
S1639      H1642   1.408       .  S
S1640      H1641   1.408       .  S
C1645      C1646   1.406       .  A
C1645      C1650   1.415       .  A
C1646      C1647   1.406       .  A
C1646      H1655   1.082       .  S
C1647      C1648   1.416       .  A
C1647      S1651   1.801       .  S
C1648      C1649   1.406       .  A
C1649      C1650   1.401       .  A
C1649      H1656   1.081       .  S
C1650      S1652   1.804       .  S
S1651      H1654   1.407       .  S
S1652      H1653   1.408       .  S
C1657      C1658   1.404       .  A
C1657      C1662   1.415       .  A
C1658      C1659   1.401       .  A
C1658      H1667   1.085       .  S
C1659      C1660   1.410       .  A
C1659      S1663   1.808       .  S
C1660      C1661   1.401       .  A
C1661      C1662   1.399       .  A
C1661      H1668   1.086       .  S
C1662      S1664   1.803       .  S
S1663      H1666   1.407       .  S
S1664      H1665   1.407       .  S
C1669      C1670   1.404       .  A
C1669      C1674   1.416       .  A
C1670      C1671   1.397       .  A
C1670      H1679   1.084       .  S
C1671      C1672   1.409       .  A
C1671      S1675   1.810       .  S
C1672      C1673   1.404       .  A
C1673      C1674   1.406       .  A
C1673      H1680   1.083       .  S
C1674      S1676   1.801       .  S
S1675      H1678   1.407       .  S
S1676      H1677   1.407       .  S
C1681      C1682   1.405       .  A
C1681      C1686   1.413       .  A
C1682      C1683   1.407       .  A
C1682      H1691   1.080       .  S
C1683      C1684   1.416       .  A
C1683      S1687   1.806       .  S
C1684      C1685   1.405       .  A
C1685      C1686   1.400       .  A
C1685      H1692   1.082       .  S
C1686      S1688   1.803       .  S
S1687      H1690   1.407       .  S
S1688      H1689   1.408       .  S
C1693      C1694   1.402       .  A
C1693      C1698   1.415       .  A
C1694      C1695   1.395       .  A
C1694      H1703   1.086       .  S
C1695      C1696   1.414       .  A
C1695      S1699   1.803       .  S
C1696      C1697   1.404       .  A
C1697      C1698   1.400       .  A
C1697      H1704   1.086       .  S
C1698      S1700   1.802       .  S
S1699      H1702   1.408       .  S
S1700      H1701   1.407       .  S
C1705      C1706   1.407       .  A
C1705      C1710   1.415       .  A
C1706      C1707   1.402       .  A
C1706      H1715   1.083       .  S
C1707      C1708   1.416       .  A
C1707      S1711   1.801       .  S
C1708      C1709   1.407       .  A
C1709      C1710   1.400       .  A
C1709      H1716   1.082       .  S
C1710      S1712   1.800       .  S
S1711      H1714   1.408       .  S
S1712      H1713   1.407       .  S
C1717      C1718   1.401       .  A
C1717      C1722   1.411       .  A
C1718      C1719   1.399   1_655  A
C1718      H1727   1.087       .  S
C1719      C1720   1.415       .  A
C1719      S1723   1.803       .  S
C1720      C1721   1.405       .  A
C1721      C1722   1.405   1_455  A
C1721      H1728   1.085       .  S
C1722      S1724   1.807       .  S
S1723      H1726   1.407       .  S
S1724      H1725   1.407   1_655  S
C1729      C1730   1.405       .  A
C1729      C1734   1.418       .  A
C1730      C1731   1.401       .  A
C1730      H1739   1.085       .  S
C1731      C1732   1.415       .  A
C1731      S1735   1.802       .  S
C1732      C1733   1.404       .  A
C1733      C1734   1.400       .  A
C1733      H1740   1.086       .  S
C1734      S1736   1.803       .  S
S1735      H1738   1.407       .  S
S1736      H1737   1.407       .  S
C1741      C1742   1.406       .  A
C1741      C1746   1.417       .  A
C1742      C1743   1.404       .  A
C1742      H1751   1.087       .  S
C1743      C1744   1.416       .  A
C1743      S1747   1.802       .  S
C1744      C1745   1.405       .  A
C1745      C1746   1.401       .  A
C1745      H1752   1.084       .  S
C1746      S1748   1.802       .  S
S1747      H1750   1.408       .  S
S1748      H1749   1.408       .  S
C1753      C1754   1.404       .  A
C1753      C1758   1.413       .  A
C1754      C1755   1.404   1_655  A
C1754      H1763   1.080       .  S
C1755      C1756   1.418       .  A
C1755      S1759   1.809       .  S
C1756      C1757   1.404       .  A
C1757      C1758   1.396   1_455  A
C1757      H1764   1.083       .  S
C1758      S1760   1.803       .  S
S1759      H1762   1.407       .  S
S1760      H1761   1.407       .  S
C1765      C1766   1.407       .  A
C1765      C1770   1.416       .  A
C1766      C1767   1.399       .  A
C1766      H1775   1.088       .  S
C1767      C1768   1.413       .  A
C1767      S1771   1.802       .  S
C1768      C1769   1.407       .  A
C1769      C1770   1.406       .  A
C1769      H1776   1.084       .  S
C1770      S1772   1.808       .  S
S1771      H1774   1.408       .  S
S1772      H1773   1.407       .  S
C1777      C1778   1.404       .  A
C1777      C1782   1.414       .  A
C1778      C1779   1.400       .  A
C1778      H1787   1.089       .  S
C1779      C1780   1.419       .  A
C1779      S1783   1.801       .  S
C1780      C1781   1.407       .  A
C1781      C1782   1.402       .  A
C1781      H1788   1.088       .  S
C1782      S1784   1.802       .  S
S1783      H1786   1.407       .  S
S1784      H1785   1.408       .  S
C1789      C1790   1.406       .  A
C1789      C1794   1.418       .  A
C1790      C1791   1.397   1_655  A
C1790      H1799   1.083       .  S
C1791      C1792   1.413       .  A
C1791      S1795   1.805       .  S
C1792      C1793   1.403       .  A
C1793      C1794   1.403   1_455  A
C1793      H1800   1.082       .  S
C1794      S1796   1.800       .  S
S1795      H1798   1.408       .  S
S1796      H1797   1.408       .  S
C1801      C1802   1.405       .  A
C1801      C1806   1.417       .  A
C1802      C1803   1.404       .  A
C1802      H1811   1.084       .  S
C1803      C1804   1.417       .  A
C1803      S1807   1.809       .  S
C1804      C1805   1.406       .  A
C1805      C1806   1.403       .  A
C1805      H1812   1.085       .  S
C1806      S1808   1.801       .  S
S1807      H1810   1.407       .  S
S1808      H1809   1.408       .  S
C1813      C1814   1.406       .  A
C1813      C1818   1.418       .  A
C1814      C1815   1.397       .  A
C1814      H1823   1.083       .  S
C1815      C1816   1.412       .  A
C1815      S1819   1.804       .  S
C1816      C1817   1.404       .  A
C1817      C1818   1.405       .  A
C1817      H1824   1.084       .  S
C1818      S1820   1.799       .  S
S1819      H1822   1.408       .  S
S1820      H1821   1.408       .  S
C1825      C1826   1.405       .  A
C1825      C1830   1.417       .  A
C1826      C1827   1.399       .  A
C1826      H1835   1.083       .  S
C1827      C1828   1.415       .  A
C1827      S1831   1.803       .  S
C1828      C1829   1.405       .  A
C1829      C1830   1.402       .  A
C1829      H1836   1.080       .  S
C1830      S1832   1.802       .  S
S1831      H1834   1.407       .  S
S1832      H1833   1.408       .  S
C1837      C1838   1.404       .  A
C1837      C1842   1.417       .  A
C1838      C1839   1.396   1_655  A
C1838      H1847   1.085       .  S
C1839      C1840   1.416       .  A
C1839      S1843   1.802       .  S
C1840      C1841   1.406       .  A
C1841      C1842   1.402   1_455  A
C1841      H1848   1.084       .  S
C1842      S1844   1.802       .  S
S1843      H1846   1.408       .  S
S1844      H1845   1.408       .  S
C1849      C1850   1.406       .  A
C1849      C1854   1.419       .  A
C1850      C1851   1.398       .  A
C1850      H1859   1.086       .  S
C1851      C1852   1.413       .  A
C1851      S1855   1.805       .  S
C1852      C1853   1.403       .  A
C1853      C1854   1.404       .  A
C1853      H1860   1.087       .  S
C1854      S1856   1.801       .  S
S1855      H1858   1.407       .  S
S1856      H1857   1.407       .  S
C1861      C1862   1.402       .  A
C1861      C1866   1.418       .  A
C1862      C1863   1.393       .  A
C1862      H1871   1.096       .  S
C1863      C1864   1.412       .  A
C1863      S1867   1.803       .  S
C1864      C1865   1.402       .  A
C1865      C1866   1.400       .  A
C1865      H1872   1.086       .  S
C1866      S1868   1.802       .  S
S1867      H1870   1.407       .  S
S1868      H1869   1.408       .  S
C1873      C1874   1.406       .  A
C1873      C1878   1.418       .  A
C1874      C1875   1.400       .  A
C1874      H1883   1.082       .  S
C1875      C1876   1.416       .  A
C1875      S1879   1.800       .  S
C1876      C1877   1.408       .  A
C1877      C1878   1.406       .  A
C1877      H1884   1.082       .  S
C1878      S1880   1.802       .  S
S1879      H1882   1.407       .  S
S1880      H1881   1.408       .  S
C1885      C1886   1.405       .  A
C1885      C1890   1.415       .  A
C1886      C1887   1.401       .  A
C1886      H1895   1.084       .  S
C1887      C1888   1.415       .  A
C1887      S1891   1.802       .  S
C1888      C1889   1.403       .  A
C1889      C1890   1.396       .  A
C1889      H1896   1.084       .  S
C1890      S1892   1.803       .  S
S1891      H1894   1.408       .  S
S1892      H1893   1.408       .  S
C1897      C1898   1.405       .  A
C1897      C1902   1.413       .  A
C1898      C1899   1.402       .  A
C1898      H1907   1.081       .  S
C1899      C1900   1.416       .  A
C1899      S1903   1.800       .  S
C1900      C1901   1.409       .  A
C1901      C1902   1.401       .  A
C1901      H1908   1.080       .  S
C1902      S1904   1.802       .  S
S1903      H1906   1.407       .  S
S1904      H1905   1.407       .  S
C1909      C1910   1.406       .  A
C1909      C1914   1.416       .  A
C1910      C1911   1.407   1_655  A
C1910      H1919   1.086       .  S
C1911      C1912   1.419       .  A
C1911      S1915   1.799       .  S
C1912      C1913   1.404       .  A
C1913      C1914   1.399   1_455  A
C1913      H1920   1.085       .  S
C1914      S1916   1.803       .  S
S1915      H1918   1.408       .  S
S1916      H1917   1.408       .  S
C1921      C1922   1.405       .  A
C1921      C1926   1.414       .  A
C1922      C1923   1.404       .  A
C1922      H1931   1.079       .  S
C1923      C1924   1.417       .  A
C1923      S1927   1.802       .  S
C1924      C1925   1.405       .  A
C1925      C1926   1.401       .  A
C1925      H1932   1.081       .  S
C1926      S1928   1.803       .  S
S1927      H1930   1.408       .  S
S1928      H1929   1.408       .  S
C1933      C1934   1.407       .  A
C1933      C1938   1.420       .  A
C1934      C1935   1.401       .  A
C1934      H1943   1.085       .  S
C1935      C1936   1.413       .  A
C1935      S1939   1.802       .  S
C1936      C1937   1.404       .  A
C1937      C1938   1.407       .  A
C1937      H1944   1.083       .  S
C1938      S1940   1.810       .  S
S1939      H1942   1.407       .  S
S1940      H1941   1.407       .  S
C1945      C1946   1.405       .  A
C1945      C1950   1.414       .  A
C1946      C1947   1.407   1_565  A
C1946      H1955   1.084       .  S
C1947      C1948   1.419       .  A
C1947      S1951   1.801       .  S
C1948      C1949   1.405       .  A
C1949      C1950   1.395   1_545  A
C1949      H1956   1.085       .  S
C1950      S1952   1.805       .  S
S1951      H1954   1.407       .  S
S1952      H1953   1.407       .  S
C1957      C1958   1.404       .  A
C1957      C1962   1.411       .  A
C1958      C1959   1.403       .  A
C1958      H1967   1.083       .  S
C1959      C1960   1.417       .  A
C1959      S1963   1.809       .  S
C1960      C1961   1.408       .  A
C1961      C1962   1.401       .  A
C1961      H1968   1.084       .  S
C1962      S1964   1.802       .  S
S1963      H1966   1.407       .  S
S1964      H1965   1.407       .  S
C1969      C1970   1.402       .  A
C1969      C1974   1.416       .  A
C1970      C1971   1.399       .  A
C1970      H1979   1.089       .  S
C1971      C1972   1.418       .  A
C1971      S1975   1.801       .  S
C1972      C1973   1.406       .  A
C1973      C1974   1.402       .  A
C1973      H1980   1.089       .  S
C1974      S1976   1.804       .  S
S1975      H1978   1.408       .  S
S1976      H1977   1.408       .  S
C1981      C1982   1.403       .  A
C1981      C1986   1.412       .  A
C1982      C1983   1.401   1_565  A
C1982      H1991   1.082       .  S
C1983      C1984   1.418       .  A
C1983      S1987   1.802       .  S
C1984      C1985   1.406       .  A
C1985      C1986   1.398   1_545  A
C1985      H1992   1.080       .  S
C1986      S1988   1.804       .  S
S1987      H1990   1.408       .  S
S1988      H1989   1.408       .  S
C1993      C1994   1.406       .  A
C1993      C1998   1.416       .  A
C1994      C1995   1.406       .  A
C1994      H2003   1.084       .  S
C1995      C1996   1.415       .  A
C1995      S1999   1.802       .  S
C1996      C1997   1.403       .  A
C1997      C1998   1.399       .  A
C1997      H2004   1.084       .  S
C1998      S2000   1.803       .  S
S1999      H2002   1.407       .  S
S2000      H2001   1.407       .  S
C2005      C2006   1.403       .  A
C2005      C2010   1.412       .  A
C2006      C2007   1.396   1_565  A
C2006      H2015   1.083       .  S
C2007      C2008   1.415       .  A
C2007      S2011   1.802       .  S
C2008      C2009   1.406       .  A
C2009      C2010   1.398   1_545  A
C2009      H2016   1.081       .  S
C2010      S2012   1.803       .  S
S2011      H2014   1.408       .  S
S2012      H2013   1.408       .  S
C2017      C2018   1.405       .  A
C2017      C2022   1.416       .  A
C2018      C2019   1.404       .  A
C2018      H2027   1.086       .  S
C2019      C2020   1.418       .  A
C2019      S2023   1.809       .  S
C2020      C2021   1.406       .  A
C2021      C2022   1.400       .  A
C2021      H2028   1.085       .  S
C2022      S2024   1.800       .  S
S2023      H2026   1.407       .  S
S2024      H2025   1.407       .  S
C2029      C2030   1.404       .  A
C2029      C2034   1.416       .  A
C2030      C2031   1.399       .  A
C2030      H2039   1.083       .  S
C2031      C2032   1.417       .  A
C2031      S2035   1.803       .  S
C2032      C2033   1.406       .  A
C2033      C2034   1.404       .  A
C2033      H2040   1.084       .  S
C2034      S2036   1.802       .  S
S2035      H2038   1.407       .  S
S2036      H2037   1.407       .  S
C2041      C2042   1.406       .  A
C2041      C2046   1.416       .  A
C2042      C2043   1.398       .  A
C2042      H2051   1.083       .  S
C2043      C2044   1.415       .  A
C2043      S2047   1.803       .  S
C2044      C2045   1.405       .  A
C2045      C2046   1.399       .  A
C2045      H2052   1.081       .  S
C2046      S2048   1.801       .  S
S2047      H2050   1.408       .  S
S2048      H2049   1.407       .  S
C2053      C2054   1.404       .  A
C2053      C2058   1.418       .  A
C2054      C2055   1.399       .  A
C2054      H2063   1.081       .  S
C2055      C2056   1.416       .  A
C2055      S2059   1.800       .  S
C2056      C2057   1.408       .  A
C2057      C2058   1.402       .  A
C2057      H2064   1.082       .  S
C2058      S2060   1.803       .  S
S2059      H2062   1.408       .  S
S2060      H2061   1.408       .  S
C2065      C2066   1.404       .  A
C2065      C2070   1.415       .  A
C2066      C2067   1.400       .  A
C2066      H2075   1.078       .  S
C2067      C2068   1.417       .  A
C2067      S2071   1.801       .  S
C2068      C2069   1.407       .  A
C2069      C2070   1.406       .  A
C2069      H2076   1.078       .  S
C2070      S2072   1.808       .  S
S2071      H2074   1.407       .  S
S2072      H2073   1.407       .  S
C2077      C2078   1.406       .  A
C2077      C2082   1.418       .  A
C2078      C2079   1.400       .  A
C2078      H2087   1.081       .  S
C2079      C2080   1.414       .  A
C2079      S2083   1.802       .  S
C2080      C2081   1.404       .  A
C2081      C2082   1.404       .  A
C2081      H2088   1.082       .  S
C2082      S2084   1.801       .  S
S2083      H2086   1.406       .  S
S2084      H2085   1.408       .  S
C2089      C2090   1.406       .  A
C2089      C2094   1.417       .  A
C2090      C2091   1.402       .  A
C2090      H2099   1.085       .  S
C2091      C2092   1.414       .  A
C2091      S2095   1.799       .  S
C2092      C2093   1.404       .  A
C2093      C2094   1.398       .  A
C2093      H2100   1.086       .  S
C2094      S2096   1.800       .  S
S2095      H2098   1.407       .  S
S2096      H2097   1.407       .  S
C2101      C2102   1.406       .  A
C2101      C2106   1.419       .  A
C2102      C2103   1.400   1_565  A
C2102      H2111   1.082       .  S
C2103      C2104   1.410       .  A
C2103      S2107   1.808       .  S
C2104      C2105   1.402       .  A
C2105      C2106   1.402   1_545  A
C2105      H2112   1.085       .  S
C2106      S2108   1.800       .  S
S2107      H2110   1.406       .  S
S2108      H2109   1.407       .  S
C2113      C2114   1.405       .  A
C2113      C2118   1.413       .  A
C2114      C2115   1.407       .  A
C2114      H2123   1.081       .  S
C2115      C2116   1.419       .  A
C2115      S2119   1.809       .  S
C2116      C2117   1.407       .  A
C2117      C2118   1.401       .  A
C2117      H2124   1.083       .  S
C2118      S2120   1.802       .  S
S2119      H2122   1.407       .  S
S2120      H2121   1.407       .  S
C2125      C2126   1.407       .  A
C2125      C2130   1.416       .  A
C2126      C2127   1.401       .  A
C2126      H2135   1.082       .  S
C2127      C2128   1.413       .  A
C2127      S2131   1.804       .  S
C2128      C2129   1.403       .  A
C2129      C2130   1.402       .  A
C2129      H2136   1.080       .  S
C2130      S2132   1.802       .  S
S2131      H2134   1.408       .  S
S2132      H2133   1.407       .  S
C2137      C2138   1.402       .  A
C2137      C2142   1.411       .  A
C2138      C2139   1.400   1_565  A
C2138      H2147   1.087       .  S
C2139      C2140   1.416       .  A
C2139      S2143   1.802       .  S
C2140      C2141   1.404       .  A
C2141      C2142   1.397   1_545  A
C2141      H2148   1.088       .  S
C2142      S2144   1.803       .  S
S2143      H2146   1.407       .  S
S2144      H2145   1.407       .  S
C2149      C2150   1.404       .  A
C2149      C2154   1.414       .  A
C2150      C2151   1.402       .  A
C2150      H2159   1.086       .  S
C2151      C2152   1.414       .  A
C2151      S2155   1.803       .  S
C2152      C2153   1.401       .  A
C2153      C2154   1.399       .  A
C2153      H2160   1.083       .  S
C2154      S2156   1.809       .  S
S2155      H2158   1.408       .  S
S2156      H2157   1.407       .  S
C2161      C2162   1.406       .  A
C2161      C2166   1.416       .  A
C2162      C2163   1.405       .  A
C2162      H2171   1.083       .  S
C2163      C2164   1.417       .  A
C2163      S2167   1.802       .  S
C2164      C2165   1.404       .  A
C2165      C2166   1.401       .  A
C2165      H2172   1.084       .  S
C2166      S2168   1.803       .  S
S2167      H2170   1.408       .  S
S2168      H2169   1.408       .  S
C2173      C2174   1.405       .  A
C2173      C2178   1.413       .  A
C2174      C2175   1.400   1_565  A
C2174      H2183   1.072       .  S
C2175      C2176   1.415       .  A
C2175      S2179   1.804       .  S
C2176      C2177   1.405       .  A
C2177      C2178   1.398   1_545  A
C2177      H2184   1.073       .  S
C2178      S2180   1.803       .  S
S2179      H2182   1.407       .  S
S2180      H2181   1.407       .  S
C2185      C2186   1.406       .  A
C2185      C2190   1.414       .  A
C2186      C2187   1.411       .  A
C2186      H2195   1.089       .  S
C2187      C2188   1.418       .  A
C2187      S2191   1.808       .  S
C2188      C2189   1.405       .  A
C2189      C2190   1.399       .  A
C2189      H2196   1.093       .  S
C2190      S2192   1.803       .  S
S2191      H2194   1.407       .  S
S2192      H2193   1.407       .  S
C2197      C2198   1.407       .  A
C2197      C2202   1.419       .  A
C2198      C2199   1.400       .  A
C2198      H2207   1.081       .  S
C2199      C2200   1.413       .  A
C2199      S2203   1.803       .  S
C2200      C2201   1.406       .  A
C2201      C2202   1.405       .  A
C2201      H2208   1.081       .  S
C2202      S2204   1.801       .  S
S2203      H2206   1.407       .  S
S2204      H2205   1.407       .  S
C2209      C2210   1.407       .  A
C2209      C2214   1.415       .  A
C2210      C2211   1.406       .  A
C2210      H2219   1.085       .  S
C2211      C2212   1.417       .  A
C2211      S2215   1.802       .  S
C2212      C2213   1.405       .  A
C2213      C2214   1.404       .  A
C2213      H2220   1.082       .  S
C2214      S2216   1.808       .  S
S2215      H2218   1.408       .  S
S2216      H2217   1.407       .  S
C2221      C2222   1.404       .  A
C2221      C2226   1.415       .  A
C2222      C2223   1.399   1_565  A
C2222      H2231   1.088       .  S
C2223      C2224   1.414       .  A
C2223      S2227   1.803       .  S
C2224      C2225   1.403       .  A
C2225      C2226   1.398   1_545  A
C2225      H2232   1.090       .  S
C2226      S2228   1.803       .  S
S2227      H2230   1.408       .  S
S2228      H2229   1.407       .  S
C2233      C2234   1.408       .  A
C2233      C2238   1.419       .  A
C2234      C2235   1.404       .  A
C2234      H2243   1.085       .  S
C2235      C2236   1.414       .  A
C2235      S2239   1.803       .  S
C2236      C2237   1.403       .  A
C2237      C2238   1.403       .  A
C2237      H2244   1.085       .  S
C2238      S2240   1.801       .  S
S2239      H2242   1.408       .  S
S2240      H2241   1.408       .  S
C2245      C2246   1.404       .  A
C2245      C2250   1.412       .  A
C2246      C2247   1.400       .  A
C2246      H2255   1.079       .  S
C2247      C2248   1.415       .  A
C2247      S2251   1.803       .  S
C2248      C2249   1.405       .  A
C2249      C2250   1.399       .  A
C2249      H2256   1.079       .  S
C2250      S2252   1.803       .  S
S2251      H2254   1.408       .  S
S2252      H2253   1.408       .  S
C2257      C2258   1.405       .  A
C2257      C2262   1.415       .  A
C2258      C2259   1.410       .  A
C2258      H2267   1.080       .  S
C2259      C2260   1.418       .  A
C2259      S2263   1.808       .  S
C2260      C2261   1.405       .  A
C2261      C2262   1.402       .  A
C2261      H2268   1.082       .  S
C2262      S2264   1.803       .  S
S2263      H2266   1.407       .  S
S2264      H2265   1.408       .  S
C2269      C2270   1.403       .  A
C2269      C2274   1.415       .  A
C2270      C2271   1.397       .  A
C2270      H2279   1.085       .  S
C2271      C2272   1.415       .  A
C2271      S2275   1.802       .  S
C2272      C2273   1.406       .  A
C2273      C2274   1.400       .  A
C2273      H2280   1.085       .  S
C2274      S2276   1.803       .  S
S2275      H2278   1.408       .  S
S2276      H2277   1.408       .  S
C2281      C2282   1.404       .  A
C2281      C2286   1.412       .  A
C2282      C2283   1.403       .  A
C2282      H2291   1.081       .  S
C2283      C2284   1.415       .  A
C2283      S2287   1.799       .  S
C2284      C2285   1.407       .  A
C2285      C2286   1.401       .  A
C2285      H2292   1.080       .  S
C2286      S2288   1.800       .  S
S2287      H2290   1.407       .  S
S2288      H2289   1.406       .  S
C2293      C2294   1.405   1_565  A
C2293      C2298   1.419   1_565  A
C2294      C2295   1.399       .  A
C2294      H2303   1.089   1_545  S
C2295      C2296   1.415       .  A
C2295      S2299   1.803       .  S
C2296      C2297   1.404       .  A
C2297      C2298   1.405       .  A
C2297      H2304   1.090       .  S
C2298      S2300   1.800   1_545  S
S2299      H2302   1.407       .  S
S2300      H2301   1.407       .  S
C2305      C2306   1.407       .  A
C2305      C2310   1.417       .  A
C2306      C2307   1.399       .  A
C2306      H2315   1.082       .  S
C2307      C2308   1.412       .  A
C2307      S2311   1.802       .  S
C2308      C2309   1.404       .  A
C2309      C2310   1.402       .  A
C2309      H2316   1.078       .  S
C2310      S2312   1.810       .  S
S2311      H2314   1.408       .  S
S2312      H2313   1.407       .  S
C2317      C2318   1.405       .  A
C2317      C2322   1.419       .  A
C2318      C2319   1.399   1_556  A
C2318      H2327   1.087       .  S
C2319      C2320   1.415       .  A
C2319      S2323   1.804       .  S
C2320      C2321   1.403       .  A
C2321      C2322   1.405   1_554  A
C2321      H2328   1.087       .  S
C2322      S2324   1.798       .  S
S2323      H2326   1.408       .  S
S2324      H2325   1.407       .  S
C2329      C2330   1.404       .  A
C2329      C2334   1.418       .  A
C2330      C2331   1.403       .  A
C2330      H2339   1.080       .  S
C2331      C2332   1.412       .  A
C2331      S2335   1.807       .  S
C2332      C2333   1.402       .  A
C2333      C2334   1.401       .  A
C2333      H2340   1.080       .  S
C2334      S2336   1.803       .  S
S2335      H2338   1.407       .  S
S2336      H2337   1.408       .  S
C2341      C2342   1.405       .  A
C2341      C2346   1.415       .  A
C2342      C2343   1.399       .  A
C2342      H2351   1.084       .  S
C2343      C2344   1.413       .  A
C2343      S2347   1.798       .  S
C2344      C2345   1.407       .  A
C2345      C2346   1.404       .  A
C2345      H2352   1.086       .  S
C2346      S2348   1.800       .  S
S2347      H2350   1.406       .  S
S2348      H2349   1.407       .  S
C2353      C2354   1.406       .  A
C2353      C2358   1.416       .  A
C2354      C2355   1.400   1_556  A
C2354      H2363   1.081       .  S
C2355      C2356   1.412       .  A
C2355      S2359   1.803       .  S
C2356      C2357   1.404       .  A
C2357      C2358   1.404   1_554  A
C2357      H2364   1.080       .  S
C2358      S2360   1.809       .  S
S2359      H2362   1.408       .  S
S2360      H2361   1.407   1_556  S
C2365      C2366   1.403       .  A
C2365      C2370   1.414       .  A
C2366      C2367   1.402       .  A
C2366      H2375   1.083       .  S
C2367      C2368   1.419       .  A
C2367      S2371   1.801       .  S
C2368      C2369   1.407       .  A
C2369      C2370   1.400       .  A
C2369      H2376   1.083       .  S
C2370      S2372   1.803       .  S
S2371      H2374   1.407       .  S
S2372      H2373   1.408       .  S
C2377      C2378   1.405       .  A
C2377      C2382   1.416       .  A
C2378      C2379   1.396   1_556  A
C2378      H2387   1.081       .  S
C2379      C2380   1.413       .  A
C2379      S2383   1.804       .  S
C2380      C2381   1.403       .  A
C2381      C2382   1.399   1_554  A
C2381      H2388   1.080       .  S
C2382      S2384   1.802       .  S
S2383      H2386   1.407       .  S
S2384      H2385   1.408       .  S
C2389      C2390   1.406       .  A
C2389      C2394   1.417       .  A
C2390      C2391   1.399       .  A
C2390      H2399   1.084       .  S
C2391      C2392   1.416       .  A
C2391      S2395   1.802       .  S
C2392      C2393   1.407       .  A
C2393      C2394   1.405       .  A
C2393      H2400   1.083       .  S
C2394      S2396   1.801       .  S
S2395      H2398   1.407       .  S
S2396      H2397   1.408       .  S
C2401      C2402   1.405       .  A
C2401      C2406   1.417       .  A
C2402      C2403   1.407       .  A
C2402      H2411   1.088       .  S
C2403      C2404   1.416       .  A
C2403      S2407   1.806       .  S
C2404      C2405   1.406       .  A
C2405      C2406   1.406       .  A
C2405      H2412   1.087       .  S
C2406      S2408   1.808       .  S
S2407      H2410   1.407       .  S
S2408      H2409   1.407       .  S
C2413      C2414   1.406       .  A
C2413      C2418   1.415       .  A
C2414      C2415   1.398       .  A
C2414      H2423   1.085       .  S
C2415      C2416   1.412       .  A
C2415      S2419   1.803       .  S
C2416      C2417   1.403       .  A
C2417      C2418   1.396       .  A
C2417      H2424   1.086       .  S
C2418      S2420   1.802       .  S
S2419      H2422   1.408       .  S
S2420      H2421   1.407       .  S
C2425      C2426   1.405       .  A
C2425      C2430   1.414       .  A
C2426      C2427   1.397       .  A
C2426      H2435   1.086       .  S
C2427      C2428   1.415       .  A
C2427      S2431   1.802       .  S
C2428      C2429   1.407       .  A
C2429      C2430   1.402       .  A
C2429      H2436   1.085       .  S
C2430      S2432   1.799       .  S
S2431      H2434   1.408       .  S
S2432      H2433   1.407       .  S
C2437      C2438   1.406       .  A
C2437      C2442   1.414       .  A
C2438      C2439   1.400       .  A
C2438      H2447   1.088       .  S
C2439      C2440   1.414       .  A
C2439      S2443   1.802       .  S
C2440      C2441   1.404       .  A
C2441      C2442   1.399       .  A
C2441      H2448   1.085       .  S
C2442      S2444   1.810       .  S
S2443      H2446   1.408       .  S
S2444      H2445   1.407       .  S
C2449      C2450   1.403       .  A
C2449      C2454   1.414       .  A
C2450      C2451   1.400       .  A
C2450      H2459   1.084       .  S
C2451      C2452   1.415       .  A
C2451      S2455   1.805       .  S
C2452      C2453   1.402       .  A
C2453      C2454   1.401       .  A
C2453      H2460   1.084       .  S
C2454      S2456   1.803       .  S
S2455      H2458   1.407       .  S
S2456      H2457   1.407       .  S
C2461      C2462   1.406       .  A
C2461      C2466   1.415       .  A
C2462      C2463   1.405   1_556  A
C2462      H2471   1.083       .  S
C2463      C2464   1.419       .  A
C2463      S2467   1.801       .  S
C2464      C2465   1.407       .  A
C2465      C2466   1.401   1_554  A
C2465      H2472   1.083       .  S
C2466      S2468   1.802       .  S
S2467      H2470   1.408       .  S
S2468      H2469   1.408       .  S
C2473      C2474   1.405       .  A
C2473      C2478   1.414       .  A
C2474      C2475   1.404       .  A
C2474      H2483   1.085       .  S
C2475      C2476   1.417       .  A
C2475      S2479   1.803       .  S
C2476      C2477   1.405       .  A
C2477      C2478   1.406       .  A
C2477      H2484   1.083       .  S
C2478      S2480   1.808       .  S
S2479      H2482   1.408       .  S
S2480      H2481   1.406       .  S
C2485      C2486   1.406       .  A
C2485      C2490   1.419       .  A
C2486      C2487   1.403       .  A
C2486      H2495   1.078       .  S
C2487      C2488   1.414       .  A
C2487      S2491   1.802       .  S
C2488      C2489   1.406       .  A
C2489      C2490   1.407       .  A
C2489      H2496   1.079       .  S
C2490      S2492   1.808       .  S
S2491      H2494   1.408       .  S
S2492      H2493   1.407       .  S
C2497      C2498   1.404       .  A
C2497      C2502   1.415       .  A
C2498      C2499   1.399   1_556  A
C2498      H2507   1.087       .  S
C2499      C2500   1.415       .  A
C2499      S2503   1.803       .  S
C2500      C2501   1.404       .  A
C2501      C2502   1.400   1_554  A
C2501      H2508   1.087       .  S
C2502      S2504   1.802       .  S
S2503      H2506   1.408       .  S
S2504      H2505   1.408       .  S
C2509      C2510   1.406       .  A
C2509      C2514   1.416       .  A
C2510      C2511   1.401       .  A
C2510      H2519   1.088       .  S
C2511      C2512   1.415       .  A
C2511      S2515   1.802       .  S
C2512      C2513   1.403       .  A
C2513      C2514   1.398       .  A
C2513      H2520   1.087       .  S
C2514      S2516   1.803       .  S
S2515      H2518   1.407       .  S
S2516      H2517   1.408       .  S
C2521      C2522   1.409       .  A
C2521      C2526   1.413       .  A
C2522      C2523   1.404       .  A
C2522      H2531   1.081       .  S
C2523      C2524   1.418       .  A
C2523      S2527   1.802       .  S
C2524      C2525   1.407       .  A
C2525      C2526   1.400       .  A
C2525      H2532   1.083       .  S
C2526      S2528   1.800       .  S
S2527      H2530   1.408       .  S
S2528      H2529   1.408       .  S
C2533      C2534   1.401       .  A
C2533      C2538   1.416       .  A
C2534      C2535   1.398       .  A
C2534      H2543   1.084       .  S
C2535      C2536   1.418       .  A
C2535      S2539   1.802       .  S
C2536      C2537   1.405       .  A
C2537      C2538   1.401       .  A
C2537      H2544   1.081       .  S
C2538      S2540   1.804       .  S
S2539      H2542   1.407       .  S
S2540      H2541   1.407       .  S
C2545      C2546   1.405       .  A
C2545      C2550   1.416       .  A
C2546      C2547   1.402   1_556  A
C2546      H2555   1.081       .  S
C2547      C2548   1.416       .  A
C2547      S2551   1.811       .  S
C2548      C2549   1.406       .  A
C2549      C2550   1.406   1_554  A
C2549      H2556   1.085       .  S
C2550      S2552   1.800       .  S
S2551      H2554   1.407       .  S
S2552      H2553   1.407       .  S
C2557      C2558   1.408       .  A
C2557      C2562   1.420       .  A
C2558      C2559   1.400       .  A
C2558      H2567   1.083       .  S
C2559      C2560   1.411       .  A
C2559      S2563   1.803       .  S
C2560      C2561   1.404       .  A
C2561      C2562   1.405       .  A
C2561      H2568   1.083       .  S
C2562      S2564   1.800       .  S
S2563      H2566   1.408       .  S
S2564      H2565   1.407       .  S
C2569      C2570   1.404       .  A
C2569      C2574   1.413       .  A
C2570      C2571   1.401   1_556  A
C2570      H2579   1.082       .  S
C2571      C2572   1.415       .  A
C2571      S2575   1.802       .  S
C2572      C2573   1.403       .  A
C2573      C2574   1.398   1_554  A
C2573      H2580   1.082       .  S
C2574      S2576   1.804       .  S
S2575      H2578   1.407       .  S
S2576      H2577   1.408       .  S
C2581      C2582   1.402       .  A
C2581      C2586   1.413       .  A
C2582      C2583   1.405       .  A
C2582      H2591   1.079       .  S
C2583      C2584   1.419       .  A
C2583      S2587   1.809       .  S
C2584      C2585   1.409       .  A
C2585      C2586   1.407       .  A
C2585      H2592   1.081       .  S
C2586      S2588   1.801       .  S
S2587      H2590   1.407       .  S
S2588      H2589   1.407       .  S
C2593      C2594   1.406       .  A
C2593      C2598   1.418       .  A
C2594      C2595   1.405       .  A
C2594      H2603   1.085       .  S
C2595      C2596   1.417       .  A
C2595      S2599   1.802       .  S
C2596      C2597   1.407       .  A
C2597      C2598   1.410       .  A
C2597      H2604   1.082       .  S
C2598      S2600   1.808       .  S
S2599      H2602   1.407       .  S
S2600      H2601   1.407       .  S
C2605      C2606   1.405       .  A
C2605      C2610   1.415       .  A
C2606      C2607   1.395       .  A
C2606      H2615   1.082       .  S
C2607      C2608   1.411       .  A
C2607      S2611   1.805       .  S
C2608      C2609   1.402       .  A
C2609      C2610   1.399       .  A
C2609      H2616   1.082       .  S
C2610      S2612   1.801       .  S
S2611      H2614   1.406       .  S
S2612      H2613   1.407       .  S
C2617      C2618   1.406       .  A
C2617      C2622   1.411       .  A
C2618      C2619   1.410       .  A
C2618      H2627   1.086       .  S
C2619      C2620   1.420       .  A
C2619      S2623   1.800       .  S
C2620      C2621   1.406       .  A
C2621      C2622   1.396       .  A
C2621      H2628   1.085       .  S
C2622      S2624   1.804       .  S
S2623      H2626   1.407       .  S
S2624      H2625   1.406       .  S
C2629      C2630   1.405       .  A
C2629      C2634   1.411       .  A
C2630      C2631   1.401       .  A
C2630      H2639   1.081       .  S
C2631      C2632   1.416       .  A
C2631      S2635   1.802       .  S
C2632      C2633   1.403       .  A
C2633      C2634   1.391       .  A
C2633      H2640   1.082       .  S
C2634      S2636   1.803       .  S
S2635      H2638   1.407       .  S
S2636      H2637   1.407       .  S
C2641      C2642   1.409       .  A
C2641      C2646   1.417       .  A
C2642      C2643   1.407       .  A
C2642      H2651   1.081       .  S
C2643      C2644   1.417       .  A
C2643      S2647   1.800       .  S
C2644      C2645   1.407       .  A
C2645      C2646   1.401       .  A
C2645      H2652   1.083       .  S
C2646      S2648   1.801       .  S
S2647      H2650   1.408       .  S
S2648      H2649   1.408       .  S
C2653      C2654   1.407       .  A
C2653      C2658   1.414       .  A
C2654      C2655   1.414   1_556  A
C2654      H2663   1.076       .  S
C2655      C2656   1.418       .  A
C2655      S2659   1.806       .  S
C2656      C2657   1.407       .  A
C2657      C2658   1.400   1_554  A
C2657      H2664   1.078       .  S
C2658      S2660   1.804       .  S
S2659      H2662   1.407   1_554  S
S2660      H2661   1.408       .  S
C2665      C2666   1.406       .  A
C2665      C2670   1.419       .  A
C2666      C2667   1.398       .  A
C2666      H2675   1.082       .  S
C2667      C2668   1.413       .  A
C2667      S2671   1.803       .  S
C2668      C2669   1.405       .  A
C2669      C2670   1.409       .  A
C2669      H2676   1.081       .  S
C2670      S2672   1.808       .  S
S2671      H2674   1.408       .  S
S2672      H2673   1.407       .  S
C2677      C2678   1.404       .  A
C2677      C2682   1.417       .  A
C2678      C2679   1.403   1_556  A
C2678      H2687   1.080       .  S
C2679      C2680   1.415       .  A
C2679      S2683   1.809       .  S
C2680      C2681   1.406       .  A
C2681      C2682   1.406   1_554  A
C2681      H2688   1.083       .  S
C2682      S2684   1.802       .  S
S2683      H2686   1.406       .  S
S2684      H2685   1.408       .  S
C2689      C2690   1.407       .  A
C2689      C2694   1.418       .  A
C2690      C2691   1.402       .  A
C2690      H2699   1.079       .  S
C2691      C2692   1.415       .  A
C2691      S2695   1.803       .  S
C2692      C2693   1.407       .  A
C2693      C2694   1.406       .  A
C2693      H2700   1.080       .  S
C2694      S2696   1.801       .  S
S2695      H2698   1.408       .  S
S2696      H2697   1.408       .  S
C2701      C2702   1.405       .  A
C2701      C2706   1.418       .  A
C2702      C2703   1.397       .  A
C2702      H2711   1.085       .  S
C2703      C2704   1.416       .  A
C2703      S2707   1.802       .  S
C2704      C2705   1.405       .  A
C2705      C2706   1.400       .  A
C2705      H2712   1.085       .  S
C2706      S2708   1.801       .  S
S2707      H2710   1.408       .  S
S2708      H2709   1.408       .  S
C2713      C2714   1.405       .  A
C2713      C2718   1.417       .  A
C2714      C2715   1.398       .  A
C2714      H2723   1.082       .  S
C2715      C2716   1.414       .  A
C2715      S2719   1.803       .  S
C2716      C2717   1.405       .  A
C2717      C2718   1.403       .  A
C2717      H2724   1.080       .  S
C2718      S2720   1.802       .  S
S2719      H2722   1.407       .  S
S2720      H2721   1.408       .  S
C2725      C2726   1.405       .  A
C2725      C2730   1.414       .  A
C2726      C2727   1.410   1_556  A
C2726      H2735   1.084       .  S
C2727      C2728   1.420       .  A
C2727      S2731   1.799       .  S
C2728      C2729   1.405       .  A
C2729      C2730   1.399   1_554  A
C2729      H2736   1.084       .  S
C2730      S2732   1.804       .  S
S2731      H2734   1.408       .  S
S2732      H2733   1.408       .  S
C2737      C2738   1.405       .  A
C2737      C2742   1.416       .  A
C2738      C2739   1.399       .  A
C2738      H2747   1.085       .  S
C2739      C2740   1.418       .  A
C2739      S2743   1.802       .  S
C2740      C2741   1.408       .  A
C2741      C2742   1.405       .  A
C2741      H2748   1.087       .  S
C2742      S2744   1.800       .  S
S2743      H2746   1.408       .  S
S2744      H2745   1.408       .  S
C2749      C2750   1.404       .  A
C2749      C2754   1.416       .  A
C2750      C2751   1.398   1_556  A
C2750      H2759   1.087       .  S
C2751      C2752   1.415       .  A
C2751      S2755   1.803       .  S
C2752      C2753   1.403       .  A
C2753      C2754   1.398   1_554  A
C2753      H2760   1.088       .  S
C2754      S2756   1.803       .  S
S2755      H2758   1.408       .  S
S2756      H2757   1.408       .  S
C2761      C2762   1.408       .  A
C2761      C2766   1.417       .  A
C2762      C2763   1.409       .  A
C2762      H2771   1.082       .  S
C2763      C2764   1.417       .  A
C2763      S2767   1.808       .  S
C2764      C2765   1.407       .  A
C2765      C2766   1.401       .  A
C2765      H2772   1.086       .  S
C2766      S2768   1.800       .  S
S2767      H2770   1.407       .  S
S2768      H2769   1.407       .  S
C2773      C2774   1.405       .  A
C2773      C2778   1.416       .  A
C2774      C2775   1.398       .  A
C2774      H2783   1.081       .  S
C2775      C2776   1.415       .  A
C2775      S2779   1.801       .  S
C2776      C2777   1.407       .  A
C2777      C2778   1.403       .  A
C2777      H2784   1.078       .  S
C2778      S2780   1.810       .  S
S2779      H2782   1.407       .  S
S2780      H2781   1.407       .  S
C2785      C2786   1.407       .  A
C2785      C2790   1.417       .  A
C2786      C2787   1.401       .  A
C2786      H2795   1.082       .  S
C2787      C2788   1.412       .  A
C2787      S2791   1.804       .  S
C2788      C2789   1.402       .  A
C2789      C2790   1.400       .  A
C2789      H2796   1.082       .  S
C2790      S2792   1.802       .  S
S2791      H2794   1.407       .  S
S2792      H2793   1.407       .  S
C2797      C2798   1.404       .  A
C2797      C2802   1.413       .  A
C2798      C2799   1.398       .  A
C2798      H2807   1.092       .  S
C2799      C2800   1.414       .  A
C2799      S2803   1.801       .  S
C2800      C2801   1.405       .  A
C2801      C2802   1.399       .  A
C2801      H2808   1.088       .  S
C2802      S2804   1.800       .  S
S2803      H2806   1.408       .  S
S2804      H2805   1.407       .  S
C2809      C2810   1.404       .  A
C2809      C2814   1.415       .  A
C2810      C2811   1.401       .  A
C2810      H2819   1.080       .  S
C2811      C2812   1.414       .  A
C2811      S2815   1.803       .  S
C2812      C2813   1.405       .  A
C2813      C2814   1.401       .  A
C2813      H2820   1.079       .  S
C2814      S2816   1.803       .  S
S2815      H2818   1.408       .  S
S2816      H2817   1.408       .  S
C2821      C2822   1.403       .  A
C2821      C2826   1.414       .  A
C2822      C2823   1.401       .  A
C2822      H2831   1.079       .  S
C2823      C2824   1.413       .  A
C2823      S2827   1.803       .  S
C2824      C2825   1.405       .  A
C2825      C2826   1.402       .  A
C2825      H2832   1.079       .  S
C2826      S2828   1.805       .  S
S2827      H2830   1.407       .  S
S2828      H2829   1.407       .  S
C2833      C2834   1.406       .  A
C2833      C2838   1.416       .  A
C2834      C2835   1.400   1_556  A
C2834      H2843   1.081       .  S
C2835      C2836   1.412       .  A
C2835      S2839   1.804       .  S
C2836      C2837   1.402       .  A
C2837      C2838   1.398   1_554  A
C2837      H2844   1.081       .  S
C2838      S2840   1.803       .  S
S2839      H2842   1.408       .  S
S2840      H2841   1.408       .  S
C2845      C2846   1.402       .  A
C2845      C2850   1.414       .  A
C2846      C2847   1.404       .  A
C2846      H2855   1.078       .  S
C2847      C2848   1.417       .  A
C2847      S2851   1.808       .  S
C2848      C2849   1.406       .  A
C2849      C2850   1.403       .  A
C2849      H2856   1.078       .  S
C2850      S2852   1.803       .  S
S2851      H2854   1.407       .  S
S2852      H2853   1.408       .  S
C2857      C2858   1.405       .  A
C2857      C2862   1.414       .  A
C2858      C2859   1.401       .  A
C2858      H2867   1.078       .  S
C2859      C2860   1.414       .  A
C2859      S2863   1.803       .  S
C2860      C2861   1.406       .  A
C2861      C2862   1.407       .  A
C2861      H2868   1.077       .  S
C2862      S2864   1.808       .  S
S2863      H2866   1.407       .  S
S2864      H2865   1.407       .  S
C2869      C2870   1.404       .  A
C2869      C2874   1.416       .  A
C2870      C2871   1.403       .  A
C2870      H2879   1.085       .  S
C2871      C2872   1.418       .  A
C2871      S2875   1.802       .  S
C2872      C2873   1.406       .  A
C2873      C2874   1.404       .  A
C2873      H2880   1.085       .  S
C2874      S2876   1.803       .  S
S2875      H2878   1.408       .  S
S2876      H2877   1.408       .  S
C2881      C2882   1.405       .  A
C2881      C2886   1.414       .  A
C2882      C2883   1.402   1_455  A
C2882      H2891   1.081       .  S
C2883      C2884   1.413       .  A
C2883      S2887   1.803       .  S
C2884      C2885   1.402       .  A
C2885      C2886   1.400   1_655  A
C2885      H2892   1.081       .  S
C2886      S2888   1.810       .  S
S2887      H2890   1.407       .  S
S2888      H2889   1.407       .  S
C2893      C2894   1.404       .  A
C2893      C2898   1.414       .  A
C2894      C2895   1.399       .  A
C2894      H2903   1.085       .  S
C2895      C2896   1.419       .  A
C2895      S2899   1.802       .  S
C2896      C2897   1.406       .  A
C2897      C2898   1.400       .  A
C2897      H2904   1.085       .  S
C2898      S2900   1.802       .  S
S2899      H2902   1.408       .  S
S2900      H2901   1.408       .  S
C2905      C2906   1.406       .  A
C2905      C2910   1.415       .  A
C2906      C2907   1.403       .  A
C2906      H2915   1.078       .  S
C2907      C2908   1.415       .  A
C2907      S2911   1.802       .  S
C2908      C2909   1.405       .  A
C2909      C2910   1.406       .  A
C2909      H2916   1.077       .  S
C2910      S2912   1.809       .  S
S2911      H2914   1.408       .  S
S2912      H2913   1.407       .  S
C2917      C2918   1.402       .  A
C2917      C2922   1.416       .  A
C2918      C2919   1.397       .  A
C2918      H2927   1.082       .  S
C2919      C2920   1.415       .  A
C2919      S2923   1.803       .  S
C2920      C2921   1.406       .  A
C2921      C2922   1.404       .  A
C2921      H2928   1.081       .  S
C2922      S2924   1.803       .  S
S2923      H2926   1.407       .  S
S2924      H2925   1.407       .  S
C2929      C2930   1.403       .  A
C2929      C2934   1.414       .  A
C2930      C2931   1.397   1_655  A
C2930      H2939   1.085       .  S
C2931      C2932   1.415       .  A
C2931      S2935   1.802       .  S
C2932      C2933   1.405       .  A
C2933      C2934   1.397   1_455  A
C2933      H2940   1.084       .  S
C2934      S2936   1.803       .  S
S2935      H2938   1.408       .  S
S2936      H2937   1.408       .  S
C2941      C2942   1.406       .  A
C2941      C2946   1.416       .  A
C2942      C2943   1.406       .  A
C2942      H2951   1.082       .  S
C2943      C2944   1.419       .  A
C2943      S2947   1.810       .  S
C2944      C2945   1.407       .  A
C2945      C2946   1.404       .  A
C2945      H2952   1.083       .  S
C2946      S2948   1.801       .  S
S2947      H2950   1.407       .  S
S2948      H2949   1.408       .  S
C2953      C2954   1.404       .  A
C2953      C2958   1.413       .  A
C2954      C2955   1.408       .  A
C2954      H2963   1.081       .  S
C2955      C2956   1.420       .  A
C2955      S2959   1.808       .  S
C2956      C2957   1.407       .  A
C2957      C2958   1.400       .  A
C2957      H2964   1.083       .  S
C2958      S2960   1.804       .  S
S2959      H2962   1.407       .  S
S2960      H2961   1.407       .  S
C2965      C2966   1.402       .  A
C2965      C2970   1.413       .  A
C2966      C2967   1.400       .  A
C2966      H2975   1.087       .  S
C2967      C2968   1.417       .  A
C2967      S2971   1.803       .  S
C2968      C2969   1.403       .  A
C2969      C2970   1.398       .  A
C2969      H2976   1.087       .  S
C2970      S2972   1.802       .  S
S2971      H2974   1.408       .  S
S2972      H2973   1.408       .  S
C2977      C2978   1.405       .  A
C2977      C2982   1.417       .  A
C2978      C2979   1.403       .  A
C2978      H2987   1.081       .  S
C2979      C2980   1.417       .  A
C2979      S2983   1.800       .  S
C2980      C2981   1.408       .  A
C2981      C2982   1.403       .  A
C2981      H2988   1.080       .  S
C2982      S2984   1.803       .  S
S2983      H2986   1.407       .  S
S2984      H2985   1.408       .  S
C2989      C2990   1.408       .  A
C2989      C2994   1.415       .  A
C2990      C2991   1.399       .  A
C2990      H2999   1.082       .  S
C2991      C2992   1.413       .  A
C2991      S2995   1.801       .  S
C2992      C2993   1.406       .  A
C2993      C2994   1.400       .  A
C2993      H3000   1.083       .  S
C2994      S2996   1.801       .  S
S2995      H2998   1.407       .  S
S2996      H2997   1.408       .  S
C3001      C3002   1.403       .  A
C3001      C3006   1.414       .  A
C3002      C3003   1.404   1_655  A
C3002      H3011   1.083       .  S
C3003      C3004   1.420       .  A
C3003      S3007   1.801       .  S
C3004      C3005   1.407       .  A
C3005      C3006   1.400   1_455  A
C3005      H3012   1.082       .  S
C3006      S3008   1.803       .  S
S3007      H3010   1.407       .  S
S3008      H3009   1.408       .  S
C3013      C3014   1.402       .  A
C3013      C3018   1.414       .  A
C3014      C3015   1.399       .  A
C3014      H3023   1.083       .  S
C3015      C3016   1.417       .  A
C3015      S3019   1.801       .  S
C3016      C3017   1.408       .  A
C3017      C3018   1.402       .  A
C3017      H3024   1.080       .  S
C3018      S3020   1.803       .  S
S3019      H3022   1.407       .  S
S3020      H3021   1.407       .  S
C3025      C3026   1.401       .  A
C3025      C3030   1.413       .  A
C3026      C3027   1.398       .  A
C3026      H3035   1.087       .  S
C3027      C3028   1.415       .  A
C3027      S3031   1.803       .  S
C3028      C3029   1.403       .  A
C3029      C3030   1.404       .  A
C3029      H3036   1.086       .  S
C3030      S3032   1.807       .  S
S3031      H3034   1.408       .  S
S3032      H3033   1.407       .  S
C3037      C3038   1.406       .  A
C3037      C3042   1.418       .  A
C3038      C3039   1.396       .  A
C3038      H3047   1.080       .  S
C3039      C3040   1.414       .  A
C3039      S3043   1.803       .  S
C3040      C3041   1.404       .  A
C3041      C3042   1.400       .  A
C3041      H3048   1.081       .  S
C3042      S3044   1.801       .  S
S3043      H3046   1.408       .  S
S3044      H3045   1.407       .  S
C3049      C3050   1.406       .  A
C3049      C3054   1.418       .  A
C3050      C3051   1.404       .  A
C3050      H3059   1.083       .  S
C3051      C3052   1.418       .  A
C3051      S3055   1.801       .  S
C3052      C3053   1.406       .  A
C3053      C3054   1.403       .  A
C3053      H3060   1.083       .  S
C3054      S3056   1.802       .  S
S3055      H3058   1.408       .  S
S3056      H3057   1.408       .  S
C3061      C3062   1.404       .  A
C3061      C3066   1.413       .  A
C3062      C3063   1.407       .  A
C3062      H3071   1.082       .  S
C3063      C3064   1.417       .  A
C3063      S3067   1.808       .  S
C3064      C3065   1.404       .  A
C3065      C3066   1.399       .  A
C3065      H3072   1.082       .  S
C3066      S3068   1.803       .  S
S3067      H3070   1.407       .  S
S3068      H3069   1.407       .  S
C3073      C3074   1.403       .  A
C3073      C3078   1.411       .  A
C3074      C3075   1.400       .  A
C3074      H3083   1.077       .  S
C3075      C3076   1.417       .  A
C3075      S3079   1.801       .  S
C3076      C3077   1.407       .  A
C3077      C3078   1.397       .  A
C3077      H3084   1.077       .  S
C3078      S3080   1.802       .  S
S3079      H3082   1.408       .  S
S3080      H3081   1.406       .  S
C3085      C3086   1.404       .  A
C3085      C3090   1.411       .  A
C3086      C3087   1.402   1_655  A
C3086      H3095   1.089       .  S
C3087      C3088   1.417       .  A
C3087      S3091   1.802       .  S
C3088      C3089   1.405       .  A
C3089      C3090   1.403   1_455  A
C3089      H3096   1.088       .  S
C3090      S3092   1.807       .  S
S3091      H3094   1.408       .  S
S3092      H3093   1.407       .  S
C3097      C3098   1.404       .  A
C3097      C3102   1.417       .  A
C3098      C3099   1.403       .  A
C3098      H3107   1.088       .  S
C3099      C3100   1.418       .  A
C3099      S3103   1.801       .  S
C3100      C3101   1.407       .  A
C3101      C3102   1.405       .  A
C3101      H3108   1.088       .  S
C3102      S3104   1.803       .  S
S3103      H3106   1.408       .  S
S3104      H3105   1.408       .  S
C3109      C3110   1.407       .  A
C3109      C3114   1.416       .  A
C3110      C3111   1.409       .  A
C3110      H3119   1.083       .  S
C3111      C3112   1.417       .  A
C3111      S3115   1.808       .  S
C3112      C3113   1.405       .  A
C3113      C3114   1.401       .  A
C3113      H3120   1.085       .  S
C3114      S3116   1.802       .  S
S3115      H3118   1.407       .  S
S3116      H3117   1.408       .  S
C3121      C3122   1.402       .  A
C3121      C3126   1.415       .  A
C3122      C3123   1.398   1_556  A
C3122      H3131   1.087       .  S
C3123      C3124   1.415       .  A
C3123      S3127   1.803       .  S
C3124      C3125   1.400       .  A
C3125      C3126   1.397   1_554  A
C3125      H3132   1.086       .  S
C3126      S3128   1.802       .  S
S3127      H3130   1.407       .  S
S3128      H3129   1.408       .  S
C3133      C3134   1.406       .  A
C3133      C3138   1.415       .  A
C3134      C3135   1.407       .  A
C3134      H3143   1.080       .  S
C3135      C3136   1.416       .  A
C3135      S3139   1.809       .  S
C3136      C3137   1.403       .  A
C3137      C3138   1.400       .  A
C3137      H3144   1.084       .  S
C3138      S3140   1.802       .  S
S3139      H3142   1.407       .  S
S3140      H3141   1.407       .  S
C3145      C3146   1.407       .  A
C3145      C3150   1.418       .  A
C3146      C3147   1.400       .  A
C3146      H3155   1.085       .  S
C3147      C3148   1.414       .  A
C3147      S3151   1.804       .  S
C3148      C3149   1.404       .  A
C3149      C3150   1.409       .  A
C3149      H3156   1.083       .  S
C3150      S3152   1.808       .  S
S3151      H3154   1.408       .  S
S3152      H3153   1.406       .  S
C3157      C3158   1.405       .  A
C3157      C3162   1.417       .  A
C3158      C3159   1.402       .  A
C3158      H3167   1.085       .  S
C3159      C3160   1.415       .  A
C3159      S3163   1.802       .  S
C3160      C3161   1.407       .  A
C3161      C3162   1.411       .  A
C3161      H3168   1.084       .  S
C3162      S3164   1.807       .  S
S3163      H3166   1.408       .  S
S3164      H3165   1.407       .  S
C3169      C3170   1.403       .  A
C3169      C3174   1.414       .  A
C3170      C3171   1.394   1_556  A
C3170      H3179   1.086       .  S
C3171      C3172   1.413       .  A
C3171      S3175   1.804       .  S
C3172      C3173   1.403       .  A
C3173      C3174   1.399   1_554  A
C3173      H3180   1.085       .  S
C3174      S3176   1.802       .  S
S3175      H3178   1.406       .  S
S3176      H3177   1.407       .  S
C3181      C3182   1.405       .  A
C3181      C3186   1.414       .  A
C3182      C3183   1.407       .  A
C3182      H3191   1.080       .  S
C3183      C3184   1.415       .  A
C3183      S3187   1.800       .  S
C3184      C3185   1.403       .  A
C3185      C3186   1.398       .  A
C3185      H3192   1.082       .  S
C3186      S3188   1.805       .  S
S3187      H3190   1.405       .  S
S3188      H3189   1.405       .  S
C3193      C3194   1.404       .  A
C3193      C3198   1.415       .  A
C3194      C3195   1.405       .  A
C3194      H3203   1.078       .  S
C3195      C3196   1.417       .  A
C3195      S3199   1.809       .  S
C3196      C3197   1.409       .  A
C3197      C3198   1.410       .  A
C3197      H3204   1.076       .  S
C3198      S3200   1.807       .  S
S3199      H3202   1.406       .  S
S3200      H3201   1.407       .  S
C3205      C3206   1.409       .  A
C3205      C3210   1.417       .  A
C3206      C3207   1.401       .  A
C3206      H3215   1.084       .  S
C3207      C3208   1.412       .  A
C3207      S3211   1.802       .  S
C3208      C3209   1.405       .  A
C3209      C3210   1.404       .  A
C3209      H3216   1.083       .  S
C3210      S3212   1.800       .  S
S3211      H3214   1.407       .  S
S3212      H3213   1.408       .  S
C3217      C3218   1.408       .  A
C3217      C3222   1.416       .  A
C3218      C3219   1.404       .  A
C3218      H3227   1.082       .  S
C3219      C3220   1.416       .  A
C3219      S3223   1.800       .  S
C3220      C3221   1.406       .  A
C3221      C3222   1.400       .  A
C3221      H3228   1.082       .  S
C3222      S3224   1.801       .  S
S3223      H3226   1.407       .  S
S3224      H3225   1.407       .  S
C3229      C3230   1.407       .  A
C3229      C3234   1.414       .  A
C3230      C3231   1.408   1_556  A
C3230      H3239   1.083       .  S
C3231      C3232   1.418       .  A
C3231      S3235   1.800       .  S
C3232      C3233   1.407       .  A
C3233      C3234   1.400   1_554  A
C3233      H3240   1.084       .  S
C3234      S3236   1.803       .  S
S3235      H3238   1.407       .  S
S3236      H3237   1.407       .  S
C3241      C3242   1.405       .  A
C3241      C3246   1.413       .  A
C3242      C3243   1.403       .  A
C3242      H3251   1.080       .  S
C3243      C3244   1.418       .  A
C3243      S3247   1.810       .  S
C3244      C3245   1.407       .  A
C3245      C3246   1.402       .  A
C3245      H3252   1.080       .  S
C3246      S3248   1.801       .  S
S3247      H3250   1.407       .  S
S3248      H3249   1.408       .  S
C3253      C3254   1.404       .  A
C3253      C3258   1.418       .  A
C3254      C3255   1.401       .  A
C3254      H3263   1.077       .  S
C3255      C3256   1.415       .  A
C3255      S3259   1.809       .  S
C3256      C3257   1.404       .  A
C3257      C3258   1.405       .  A
C3257      H3264   1.079       .  S
C3258      S3260   1.801       .  S
S3259      H3262   1.407       .  S
S3260      H3261   1.408       .  S
C3265      C3266   1.401       .  A
C3265      C3270   1.416       .  A
C3266      C3267   1.393       .  A
C3266      H3275   1.087       .  S
C3267      C3268   1.415       .  A
C3267      S3271   1.803       .  S
C3268      C3269   1.405       .  A
C3269      C3270   1.401       .  A
C3269      H3276   1.088       .  S
C3270      S3272   1.803       .  S
S3271      H3274   1.408       .  S
S3272      H3273   1.407       .  S
C3277      C3278   1.405       .  A
C3277      C3282   1.416       .  A
C3278      C3279   1.403       .  A
C3278      H3287   1.082       .  S
C3279      C3280   1.416       .  A
C3279      S3283   1.802       .  S
C3280      C3281   1.403       .  A
C3281      C3282   1.400       .  A
C3281      H3288   1.084       .  S
C3282      S3284   1.803       .  S
S3283      H3286   1.407       .  S
S3284      H3285   1.407       .  S
C3289      C3290   1.403       .  A
C3289      C3294   1.413       .  A
C3290      C3291   1.403       .  A
C3290      H3299   1.088       .  S
C3291      C3292   1.416       .  A
C3291      S3295   1.807       .  S
C3292      C3293   1.403       .  A
C3293      C3294   1.395       .  A
C3293      H3300   1.090       .  S
C3294      S3296   1.804       .  S
S3295      H3298   1.407       .  S
S3296      H3297   1.408       .  S
C3301      C3302   1.407       .  A
C3301      C3306   1.418       .  A
C3302      C3303   1.398   1_556  A
C3302      H3311   1.087       .  S
C3303      C3304   1.414       .  A
C3303      S3307   1.804       .  S
C3304      C3305   1.403       .  A
C3305      C3306   1.404   1_554  A
C3305      H3312   1.087       .  S
C3306      S3308   1.800       .  S
S3307      H3310   1.408       .  S
S3308      H3309   1.408       .  S
C3313      C3314   1.405       .  A
C3313      C3318   1.418       .  A
C3314      C3315   1.401       .  A
C3314      H3323   1.086       .  S
C3315      C3316   1.416       .  A
C3315      S3319   1.801       .  S
C3316      C3317   1.407       .  A
C3317      C3318   1.406       .  A
C3317      H3324   1.085       .  S
C3318      S3320   1.802       .  S
S3319      H3322   1.408       .  S
S3320      H3321   1.408       .  S
C3325      C3326   1.405       .  A
C3325      C3330   1.413       .  A
C3326      C3327   1.402       .  A
C3326      H3335   1.082       .  S
C3327      C3328   1.418       .  A
C3327      S3331   1.801       .  S
C3328      C3329   1.408       .  A
C3329      C3330   1.402       .  A
C3329      H3336   1.082       .  S
C3330      S3332   1.802       .  S
S3331      H3334   1.407       .  S
S3332      H3333   1.408       .  S
C3337      C3338   1.407       .  A
C3337      C3342   1.418       .  A
C3338      C3339   1.399   1_565  A
C3338      H3347   1.080       .  S
C3339      C3340   1.412       .  A
C3339      S3343   1.803       .  S
C3340      C3341   1.405       .  A
C3341      C3342   1.404   1_545  A
C3341      H3348   1.080       .  S
C3342      S3344   1.801       .  S
S3343      H3346   1.407       .  S
S3344      H3345   1.408       .  S
C3349      C3350   1.407       .  A
C3349      C3354   1.416       .  A
C3350      C3351   1.404       .  A
C3350      H3359   1.085       .  S
C3351      C3352   1.414       .  A
C3351      S3355   1.802       .  S
C3352      C3353   1.405       .  A
C3353      C3354   1.405       .  A
C3353      H3360   1.083       .  S
C3354      S3356   1.809       .  S
S3355      H3358   1.407       .  S
S3356      H3357   1.406       .  S
C3361      C3362   1.406       .  A
C3361      C3366   1.418       .  A
C3362      C3363   1.396       .  A
C3362      H3371   1.086       .  S
C3363      C3364   1.411       .  A
C3363      S3367   1.803       .  S
C3364      C3365   1.402       .  A
C3365      C3366   1.398       .  A
C3365      H3372   1.087       .  S
C3366      S3368   1.801       .  S
S3367      H3370   1.407       .  S
S3368      H3369   1.408       .  S
C3373      C3374   1.406       .  A
C3373      C3378   1.415       .  A
C3374      C3375   1.407       .  A
C3374      H3383   1.085       .  S
C3375      C3376   1.417       .  A
C3375      S3379   1.808       .  S
C3376      C3377   1.407       .  A
C3377      C3378   1.406       .  A
C3377      H3384   1.084       .  S
C3378      S3380   1.808       .  S
S3379      H3382   1.407       .  S
S3380      H3381   1.406       .  S
C3385      C3386   1.405       .  A
C3385      C3390   1.414       .  A
C3386      C3387   1.402       .  A
C3386      H3395   1.080       .  S
C3387      C3388   1.417       .  A
C3387      S3391   1.801       .  S
C3388      C3389   1.407       .  A
C3389      C3390   1.400       .  A
C3389      H3396   1.079       .  S
C3390      S3392   1.803       .  S
S3391      H3394   1.408       .  S
S3392      H3393   1.408       .  S
C3397      C3398   1.403   1_565  A
C3397      C3402   1.414   1_565  A
C3398      C3399   1.401       .  A
C3398      H3407   1.086   1_545  S
C3399      C3400   1.417       .  A
C3399      S3403   1.804       .  S
C3400      C3401   1.405       .  A
C3401      C3402   1.405       .  A
C3401      H3408   1.084       .  S
C3402      S3404   1.802   1_545  S
S3403      H3406   1.407       .  S
S3404      H3405   1.407       .  S
C3409      C3410   1.406       .  A
C3409      C3414   1.418       .  A
C3410      C3411   1.398       .  A
C3410      H3419   1.083       .  S
C3411      C3412   1.410       .  A
C3411      S3415   1.803       .  S
C3412      C3413   1.406       .  A
C3413      C3414   1.408       .  A
C3413      H3420   1.079       .  S
C3414      S3416   1.808       .  S
S3415      H3418   1.408       .  S
S3416      H3417   1.406       .  S
C3421      C3422   1.403       .  A
C3421      C3426   1.413       .  A
C3422      C3423   1.401       .  A
C3422      H3431   1.085       .  S
C3423      C3424   1.416       .  A
C3423      S3427   1.802       .  S
C3424      C3425   1.404       .  A
C3425      C3426   1.398       .  A
C3425      H3432   1.086       .  S
C3426      S3428   1.803       .  S
S3427      H3430   1.407       .  S
S3428      H3429   1.407       .  S
C3433      C3434   1.406       .  A
C3433      C3438   1.419       .  A
C3434      C3435   1.402       .  A
C3434      H3443   1.083       .  S
C3435      C3436   1.418       .  A
C3435      S3439   1.801       .  S
C3436      C3437   1.407       .  A
C3437      C3438   1.408       .  A
C3437      H3444   1.080       .  S
C3438      S3440   1.809       .  S
S3439      H3442   1.407       .  S
S3440      H3441   1.407       .  S
C3445      C3446   1.403       .  A
C3445      C3450   1.414   1_565  A
C3446      C3447   1.398   1_565  A
C3446      H3455   1.080       .  S
C3447      C3448   1.418       .  A
C3447      S3451   1.801       .  S
C3448      C3449   1.407       .  A
C3449      C3450   1.400       .  A
C3449      H3456   1.081       .  S
C3450      S3452   1.802   1_545  S
S3451      H3454   1.408       .  S
S3452      H3453   1.408       .  S
C3457      C3458   1.405       .  A
C3457      C3462   1.417       .  A
C3458      C3459   1.402       .  A
C3458      H3467   1.089       .  S
C3459      C3460   1.416       .  A
C3459      S3463   1.803       .  S
C3460      C3461   1.404       .  A
C3461      C3462   1.403       .  A
C3461      H3468   1.087       .  S
C3462      S3464   1.802       .  S
S3463      H3466   1.408       .  S
S3464      H3465   1.408       .  S
C3469      C3470   1.405       .  A
C3469      C3474   1.417       .  A
C3470      C3471   1.403       .  A
C3470      H3479   1.087       .  S
C3471      C3472   1.414       .  A
C3471      S3475   1.808       .  S
C3472      C3473   1.404       .  A
C3473      C3474   1.406       .  A
C3473      H3480   1.094       .  S
C3474      S3476   1.807       .  S
S3475      H3478   1.407       .  S
S3476      H3477   1.407       .  S
C3481      C3482   1.405       .  A
C3481      C3486   1.416       .  A
C3482      C3483   1.404       .  A
C3482      H3491   1.084       .  S
C3483      C3484   1.416       .  A
C3483      S3487   1.809       .  S
C3484      C3485   1.405       .  A
C3485      C3486   1.400       .  A
C3485      H3492   1.088       .  S
C3486      S3488   1.800       .  S
S3487      H3490   1.406       .  S
S3488      H3489   1.407       .  S
C3493      C3494   1.405       .  A
C3493      C3498   1.415       .  A
C3494      C3495   1.399       .  A
C3494      H3503   1.083       .  S
C3495      C3496   1.415       .  A
C3495      S3499   1.801       .  S
C3496      C3497   1.408       .  A
C3497      C3498   1.406       .  A
C3497      H3504   1.081       .  S
C3498      S3500   1.800       .  S
S3499      H3502   1.408       .  S
S3500      H3501   1.408       .  S
C3505      C3506   1.405       .  A
C3505      C3510   1.417       .  A
C3506      C3507   1.402       .  A
C3506      H3515   1.087       .  S
C3507      C3508   1.416       .  A
C3507      S3511   1.802       .  S
C3508      C3509   1.406       .  A
C3509      C3510   1.403       .  A
C3509      H3516   1.087       .  S
C3510      S3512   1.802       .  S
S3511      H3514   1.407       .  S
S3512      H3513   1.408       .  S
C3517      C3518   1.403       .  A
C3517      C3522   1.417       .  A
C3518      C3519   1.398       .  A
C3518      H3527   1.087       .  S
C3519      C3520   1.413       .  A
C3519      S3523   1.803       .  S
C3520      C3521   1.403       .  A
C3521      C3522   1.403       .  A
C3521      H3528   1.088       .  S
C3522      S3524   1.803       .  S
S3523      H3526   1.408       .  S
S3524      H3525   1.408       .  S
C3529      C3530   1.405       .  A
C3529      C3534   1.417       .  A
C3530      C3531   1.397   1_565  A
C3530      H3539   1.090       .  S
C3531      C3532   1.416       .  A
C3531      S3535   1.801       .  S
C3532      C3533   1.406       .  A
C3533      C3534   1.400   1_545  A
C3533      H3540   1.087       .  S
C3534      S3536   1.801       .  S
S3535      H3538   1.408       .  S
S3536      H3537   1.408       .  S
C3541      C3542   1.405       .  A
C3541      C3546   1.416       .  A
C3542      C3543   1.399       .  A
C3542      H3551   1.084       .  S
C3543      C3544   1.414       .  A
C3543      S3547   1.803       .  S
C3544      C3545   1.404       .  A
C3545      C3546   1.407       .  A
C3545      H3552   1.080       .  S
C3546      S3548   1.808       .  S
S3547      H3550   1.408       .  S
S3548      H3549   1.407       .  S
