geometry optimzed in LAMMPS
_audit_creation_date              2020-12-01 
_audit_creation_method            'lammps2cif' 
_symmetry_space_group_name_H-M    'P1' 
_symmetry_Int_Tables_number       1 
_symmetry_cell_setting            triclinic 
loop_ 
_symmetry_equiv_pos_as_xyz 
  x,y,z 
_cell_length_a                    32.37484137 
_cell_length_b                    32.311907167584316 
_cell_length_c                    65.9958545369176 
_cell_angle_alpha                 90.0851945128081 
_cell_angle_beta                  89.80793464997598 
_cell_angle_gamma                 90.10117543020485 
loop_ 
_atom_site_label 
_atom_site_type_symbol 
_atom_site_fract_x 
_atom_site_fract_y 
_atom_site_fract_z 
_atom_site_charge 
O1          O  0.25711766  0.90958098  0.53271695    -0.81100
O2          O  0.20630653  0.94437156  0.62026957    -0.65800
O3          O  0.20916672  0.89760428  0.56725393    -1.12400
C4          C  0.11032337  0.98845137  0.54684141     1.05800
O5          O  0.14485451  0.97564365  0.61851873    -0.79000
O6          O  0.11743171  0.91680951  0.59075938    -0.66600
Ni7        Ni  0.25663605  0.87349220  0.55595217     1.34900
C8          C  0.11298474  0.89612489  0.57446472     0.84500
O9          O  0.23481853  0.87209449  0.60547688    -0.79600
O10         O  0.25788601  0.83558547  0.57846570    -0.89800
C11         C  0.17703008  0.96505925  0.62824727     0.84100
O12         O  0.29642619  0.90824117  0.56847285    -0.68000
O13         O  0.09807542  0.98027197  0.56474884    -0.87300
C14         C  0.29476852  0.93733998  0.58133882     0.84900
C15         C  0.24928492  0.83909759  0.59734652     1.06500
H16         H  0.19594364  0.99077785  0.58083778     0.38300
O17         O  0.17976881  0.96562018  0.58057847    -1.10000
O18         O  0.13112191  0.90719769  0.55797082    -0.66600
Ni19       Ni  0.18079814  0.94129926  0.55405997     1.26300
O20         O  0.26156346  0.94782324  0.59048952    -0.66900
O21         O  0.14806578  0.98414412  0.54181907    -0.79200
C22         C  0.22719683  0.91719912  0.52080919     0.84300
O23         O  0.18996283  0.91881653  0.52734272    -0.66300
Ni24       Ni  0.12549102  0.97536645  0.59086123     1.27400
Ni25       Ni  0.20873705  0.92021739  0.59362900     1.26100
H26         H  0.19097589  0.87401959  0.56808567     0.38800
O27         O  0.75289758  0.65115041  0.53585600    -0.81100
O28         O  0.80303175  0.62299836  0.62293853    -0.65800
O29         O  0.79951009  0.66762745  0.56993516    -1.12400
C30         C  0.89822941  0.57467669  0.54975775     1.05800
O31         O  0.86454217  0.59199601  0.62165450    -0.79000
O32         O  0.89368953  0.64753315  0.59326237    -0.66600
Ni33       Ni  0.74984297  0.68773788  0.55873297     1.34900
C34         C  0.89829459  0.66787610  0.57693234     0.84500
O35         O  0.77333496  0.69342013  0.60770348    -0.79600
O36         O  0.74512056  0.72606465  0.58080002    -0.89800
C37         C  0.83231064  0.60336318  0.63119115     0.84100
O38         O  0.71128584  0.65160728  0.57175945    -0.68000
O39         O  0.91014661  0.58170908  0.56780778    -0.87300
C40         C  0.71495310  0.62439922  0.58546543     0.84900
C41         C  0.75482287  0.72409551  0.59951932     1.06500
H42         H  0.81324190  0.57501042  0.58367881     0.38300
O43         O  0.82961535  0.60004150  0.58346546    -1.10000
O44         O  0.87891498  0.65770400  0.56070148    -0.66600
Ni45       Ni  0.82877974  0.62424009  0.55691064     1.26300
O46         O  0.74904445  0.61625555  0.59406304    -0.66900
O47         O  0.86101947  0.58114399  0.54449519    -0.79200
C48         C  0.78360975  0.64907304  0.52382093     0.84300
O49         O  0.82058062  0.64764948  0.53047133    -0.66300
Ni50       Ni  0.88339004  0.58941415  0.59392469     1.27400
Ni51       Ni  0.80055777  0.64568070  0.59627999     1.26100
H52         H  0.81700816  0.69180401  0.57034227     0.38800
O53         O  0.31544007  0.41681302  0.62133680    -0.81100
O54         O  0.36561009  0.46762183  0.71192361    -0.65800
O55         O  0.32111693  0.45509175  0.65879803    -1.12400
C56         C  0.44306642  0.53412579  0.64356904     1.05800
O57         O  0.36711387  0.53539085  0.70690155    -0.79000
O58         O  0.36521408  0.57513394  0.67060342    -0.66600
Ni59       Ni  0.31080809  0.40016967  0.64926609     1.34900
C60         C  0.33963144  0.56956181  0.65633113     0.84500
O61         O  0.29909475  0.42740099  0.69780379    -0.79600
O62         O  0.30140730  0.37600311  0.67567494    -0.89800
C63         C  0.36516892  0.50439521  0.71874741     0.84100
O64         O  0.36792799  0.38707362  0.65115159    -0.68000
O65         O  0.44232855  0.54592339  0.66204348    -0.87300
C66         C  0.38755350  0.38633119  0.66785140     0.84900
C67         C  0.29156706  0.39003918  0.69302764     1.06500
H68         H  0.41163404  0.47111208  0.67329395     0.38300
O69         O  0.38700869  0.48792273  0.67290584    -1.10000
O70         O  0.33537905  0.53507844  0.64728199    -0.66600
Ni71       Ni  0.36672478  0.48447553  0.64620217     1.26300
O72         O  0.37722548  0.40872963  0.68311204    -0.66900
O73         O  0.41440585  0.51288759  0.63508437    -0.79200
C74         C  0.32609494  0.44886247  0.61141275     0.84300
O75         O  0.34546800  0.47902313  0.61931228    -0.66300
Ni76       Ni  0.40366917  0.53958048  0.68391117     1.27400
Ni77       Ni  0.34330590  0.45852081  0.68555344     1.26100
H78         H  0.29594173  0.47103357  0.65806177     0.38800
O79         O  0.68922932  0.14860209  0.62579069    -0.81100
O80         O  0.63033211  0.08832903  0.71419553    -0.65800
O81         O  0.68003619  0.10592644  0.66227487    -1.12400
C82         C  0.55699229  0.03427494  0.64223617     1.05800
O83         O  0.62545204  0.02120700  0.70763186    -0.79000
O84         O  0.63040514  0.98645621  0.67003186    -0.66600
Ni85       Ni  0.69253062  0.16147492  0.65433388     1.34900
C86         C  0.65877362  0.99235478  0.65704833     0.84500
O87         O  0.69830527  0.12864094  0.70263683    -0.79600
O88         O  0.70117187  0.18200406  0.68153988    -0.89800
C89         C  0.63076907  0.05094205  0.72010730     0.84100
O90         O  0.63555873  0.17594393  0.65583005    -0.68000
O91         O  0.55577225  0.01970427  0.66024173    -0.87300
C92         C  0.61401094  0.17470610  0.67200742     0.84900
C93         C  0.70761510  0.16603117  0.69884993     1.06500
H94         H  0.58791675  0.09125987  0.67451160     0.38300
O95         O  0.61193761  0.07361067  0.67417059    -1.10000
O96         O  0.66480199  0.02733949  0.64866860    -0.66600
Ni97       Ni  0.63511074  0.07926022  0.64795799     1.26300
O98         O  0.62264710  0.15110835  0.68700671    -0.66900
O99         O  0.58781893  0.05435111  0.63502407    -0.79200
C100        C  0.67894914  0.11797641  0.61474102     0.84300
O101        O  0.65910220  0.08694280  0.62154492    -0.66300
Ni102      Ni  0.59171785  0.02172405  0.68335758     1.27400
Ni103      Ni  0.65504441  0.10012381  0.68853455     1.26100
H104        H  0.70485518  0.08940962  0.66157712     0.38800
O105        O  0.64045177  0.97345722  0.87362006    -0.81100
O106        O  0.68746953  0.92213226  0.96503681    -0.65800
O107        O  0.67608750  0.96618505  0.91162589    -1.12400
C108        C  0.75226716  0.84223224  0.89637616     1.05800
O109        O  0.75503359  0.91755587  0.95997144    -0.79000
O110        O  0.79477136  0.91694653  0.92380141    -0.66600
Ni111      Ni  0.62205535  0.97759130  0.90147433     1.34900
C112        C  0.79058212  0.94480099  0.91050690     0.84500
O113        O  0.64719748  0.98776563  0.95038009    -0.79600
O114        O  0.59675828  0.98743513  0.92766561    -0.89800
C115        C  0.72430997  0.92320444  0.97172663     0.84100
O116        O  0.60773454  0.92022284  0.90327004    -0.68000
O117        O  0.76263936  0.84209945  0.91503971    -0.87300
C118        C  0.60648984  0.89990836  0.91985454     0.84900
C119        C  0.61012357  0.99528013  0.94536492     1.06500
H120        H  0.68961018  0.87535902  0.92602850     0.38300
O121        O  0.70710795  0.89953825  0.92583861    -1.10000
O122        O  0.75649879  0.95118635  0.90151622    -0.66600
Ni123      Ni  0.70546917  0.92047901  0.89920243     1.26300
O124        O  0.62788726  0.90998748  0.93550314    -0.66900
O125        O  0.73319845  0.87244554  0.88800585    -0.79200
C126        C  0.67321168  0.96293333  0.86419753     0.84300
O127        O  0.70228643  0.94274572  0.87241289    -0.66300
Ni128      Ni  0.75740078  0.88049947  0.93704170     1.27400
Ni129      Ni  0.67824906  0.94366779  0.93837121     1.26100
H130        H  0.69242109  0.99122157  0.91107758     0.38800
O131        O  0.36767833  0.59136429  0.87226524    -0.81100
O132        O  0.31512269  0.64508643  0.96183888    -0.65800
O133        O  0.32838473  0.59991610  0.90893766    -1.12400
C134        C  0.25207942  0.72317913  0.89277252     1.05800
O135        O  0.24776622  0.64768334  0.95618011    -0.79000
O136        O  0.20927116  0.64772393  0.91970529    -0.66600
Ni137      Ni  0.38322415  0.58701902  0.90014793     1.34900
C138        C  0.21413790  0.62205308  0.90536204     0.84500
O139        O  0.35365035  0.57760500  0.94804998    -0.79600
O140        O  0.40616718  0.57791339  0.92669337    -0.89800
C141        C  0.27807942  0.64357323  0.96823913     0.84100
O142        O  0.39904878  0.64341269  0.90172958    -0.68000
O143        O  0.24091138  0.72346578  0.91137660    -0.87300
C144        C  0.39950243  0.66460676  0.91800208     0.84900
C145        C  0.39078469  0.56859326  0.94378438     1.06500
H146        H  0.31449308  0.69123593  0.92301939     0.38300
O147        O  0.29705065  0.66696838  0.92258562    -1.10000
O148        O  0.24869343  0.61625181  0.89652606    -0.66600
Ni149      Ni  0.30063908  0.64603471  0.89595363     1.26300
O150        O  0.37597620  0.65578532  0.93318489    -0.66900
O151        O  0.27358104  0.69422934  0.88454555    -0.79200
C152        C  0.33644492  0.60253627  0.86204116     0.84300
O153        O  0.30673583  0.62369643  0.86925452    -0.66300
Ni154      Ni  0.24571150  0.68486064  0.93332990     1.27400
Ni155      Ni  0.32487438  0.62272762  0.93550360     1.26100
H156        H  0.31158081  0.57521405  0.90821449     0.38800
O157        O  0.12333071  0.02852684  0.78402702    -0.81100
O158        O  0.15907717  0.08611614  0.87047608    -0.65800
O159        O  0.11069322  0.07743532  0.81847578    -1.12400
C160        C  0.20290279  0.17268130  0.79442516     1.05800
O161        O  0.19418223  0.14536729  0.86691738    -0.79000
O162        O  0.13558340  0.17358073  0.84033729    -0.66600
Ni163      Ni  0.08908982  0.02740732  0.80821767     1.34900
C164        C  0.11284674  0.17676275  0.82475271     0.84500
O165        O  0.08732395  0.05574212  0.85713239    -0.79600
O166        O  0.05308107  0.02445685  0.83142339    -0.89800
C167        C  0.18142411  0.11503378  0.87748563     0.84100
O168        O  0.12595541  0.98953374  0.82105580    -0.68000
O169        O  0.19704989  0.18714873  0.81215459    -0.87300
C170        C  0.15346806  0.99324551  0.83461477     0.84900
C171        C  0.05636498  0.03604610  0.84991023     1.06500
H172        H  0.20421941  0.09037523  0.82995132     0.38300
O173        O  0.17978634  0.10751107  0.83003804    -1.10000
O174        O  0.12056787  0.15622373  0.80842756    -0.66600
Ni175      Ni  0.15305922  0.10524237  0.80423592     1.26300
O176        O  0.16220248  0.02776309  0.84294867    -0.66900
O177        O  0.19571464  0.13501079  0.79038792    -0.79200
C178        C  0.12823791  0.05909953  0.77198493     0.84300
O179        O  0.12732947  0.09619701  0.77853911    -0.66300
Ni180      Ni  0.19313052  0.16221546  0.83895198     1.27400
Ni181      Ni  0.13459871  0.08073182  0.84432968     1.26100
H182        H  0.08684054  0.09511405  0.81916085     0.38800
O183        O  0.87313660  0.53329790  0.78603851    -0.81100
O184        O  0.83530654  0.48420050  0.87264401    -0.65800
O185        O  0.88395334  0.48504924  0.82016459    -1.12400
C186        C  0.78948267  0.39001860  0.79855608     1.05800
O187        O  0.80269169  0.42331035  0.87035387    -0.79000
O188        O  0.85969228  0.39296716  0.84290323    -0.66600
Ni189      Ni  0.90953600  0.53175002  0.80895346     1.34900
C190        C  0.88114623  0.38818866  0.82687808     0.84500
O191        O  0.90972039  0.50983362  0.85833858    -0.79600
O192        O  0.94722031  0.53133995  0.83128216    -0.89800
C193        C  0.81369567  0.45515803  0.88029158     0.84100
O194        O  0.87768773  0.57364776  0.82184586    -0.68000
O195        O  0.79542541  0.37789275  0.81662860    -0.87300
C196        C  0.84883785  0.57358003  0.83486342     0.84900
C197        C  0.94332594  0.52297926  0.85014833     1.06500
H198        H  0.79005429  0.47580776  0.83272687     0.38300
O199        O  0.81440224  0.45855020  0.83273833    -1.10000
O200        O  0.87145176  0.40683650  0.81040826    -0.66600
Ni201      Ni  0.84004376  0.45816601  0.80648202     1.26300
O202        O  0.83570070  0.54047502  0.84335626    -0.66900
O203        O  0.79652226  0.42739873  0.79351023    -0.79200
C204        C  0.86615942  0.50331758  0.77397963     0.84300
O205        O  0.86472631  0.46604677  0.78031338    -0.66300
Ni206      Ni  0.80183411  0.40457566  0.84275326     1.27400
Ni207      Ni  0.86049285  0.48586254  0.84625268     1.26100
H208        H  0.90671068  0.46596273  0.82114183     0.38800
O209        O  0.75369586  0.40897952  0.03718820    -0.81100
O210        O  0.69279879  0.44842173  0.12252354    -0.65800
O211        O  0.70416668  0.39609400  0.07142806    -1.12400
C212        C  0.60605616  0.48238953  0.04563033     1.05800
O213        O  0.63144257  0.47902565  0.11843730    -0.79000
O214        O  0.60703667  0.41692939  0.09216345    -0.66600
Ni215      Ni  0.75532626  0.37612143  0.06176037     1.34900
C216        C  0.60477551  0.39385188  0.07658302     0.84500
O217        O  0.72705012  0.37700007  0.11060737    -0.79600
O218        O  0.75923513  0.34169971  0.08545560    -0.89800
C219        C  0.66262405  0.46949425  0.12915430     0.84100
O220        O  0.79083454  0.41564996  0.07422449    -0.68000
O221        O  0.59120660  0.47637964  0.06328763    -0.87300
C222        C  0.78532720  0.44487615  0.08679045     0.84900
C223        C  0.74768223  0.34604509  0.10390335     1.06500
H224        H  0.68632900  0.49002300  0.08157495     0.38300
O225        O  0.67068584  0.46453213  0.08188990    -1.10000
O226        O  0.62572543  0.40189544  0.06044986    -0.66600
Ni227      Ni  0.67521319  0.43652149  0.05646519     1.26300
O228        O  0.75042875  0.45272636  0.09482142    -0.66900
O229        O  0.64411224  0.47703565  0.04193025    -0.79200
C230        C  0.72344374  0.41203172  0.02491838     0.84300
O231        O  0.68627996  0.40996383  0.03118229    -0.66300
Ni232      Ni  0.61530497  0.47519884  0.09034729     1.27400
Ni233      Ni  0.69951392  0.42189946  0.09690198     1.26100
H234        H  0.68740961  0.37146964  0.07232998     0.38800
O235        O  0.19416510  0.64908995  0.12238704    -0.81100
O236        O  0.12909983  0.59832864  0.21125253    -0.65800
O237        O  0.17919594  0.61265361  0.15923082    -1.12400
C238        C  0.05711177  0.53721415  0.14076008     1.05800
O239        O  0.12913159  0.53087538  0.20460410    -0.79000
O240        O  0.13147515  0.49288809  0.16773131    -0.66600
Ni241      Ni  0.19151734  0.66734407  0.15030372     1.34900
C242        C  0.15749045  0.49882618  0.15362097     0.84500
O243        O  0.19562956  0.64098362  0.19891838    -0.79600
O244        O  0.19481302  0.69284261  0.17701940    -0.89800
C245        C  0.13025829  0.56074735  0.21719368     0.84100
O246        O  0.13346137  0.67769101  0.14950849    -0.68000
O247        O  0.05615811  0.52454894  0.15908807    -0.87300
C248        C  0.11126964  0.68035501  0.16549282     0.84900
C249        C  0.20185621  0.67883468  0.19469542     1.06500
H250        H  0.08697357  0.59676980  0.17146720     0.38300
O251        O  0.11166177  0.58017222  0.17146086    -1.10000
O252        O  0.16355343  0.53379090  0.14541918    -0.66600
Ni253      Ni  0.13387713  0.58515878  0.14529622     1.26300
O254        O  0.11952296  0.65929112  0.18156797    -0.66900
O255        O  0.08650991  0.55878246  0.13307653    -0.79200
C256        C  0.18130546  0.61847280  0.11195921     0.84300
O257        O  0.15699286  0.59121427  0.11893068    -0.66300
Ni258      Ni  0.09348209  0.52855304  0.18142315     1.27400
Ni259      Ni  0.15364465  0.60931171  0.18533769     1.26100
H260        H  0.20392408  0.59595281  0.15894940     0.38800
O261        O  0.24886739  0.15657996  0.03214365    -0.81100
O262        O  0.29699690  0.12747068  0.12029142    -0.65800
O263        O  0.29531209  0.16951776  0.06675709    -1.12400
C264        C  0.38867013  0.07225412  0.04723841     1.05800
O265        O  0.35161620  0.08541753  0.11841288    -0.79000
O266        O  0.38581872  0.14200394  0.09153554    -0.66600
Ni267      Ni  0.24805799  0.19320775  0.05513941     1.34900
C268        C  0.39107753  0.16384996  0.07566035     0.84500
O269        O  0.27322208  0.19951131  0.10444250    -0.79600
O270        O  0.24578325  0.23191306  0.07727333    -0.89800
C271        C  0.32223578  0.10225926  0.12815897     0.84100
O272        O  0.20745623  0.15896558  0.06769589    -0.68000
O273        O  0.40016696  0.07782307  0.06540566    -0.87300
C274        C  0.20820197  0.13332869  0.08221723     0.84900
C275        C  0.25657901  0.23084618  0.09590062     1.06500
H276        H  0.30083948  0.07683686  0.08094148     0.38300
O277        O  0.31964540  0.10008122  0.08070149    -1.10000
O278        O  0.37334043  0.15427139  0.05889932    -0.66600
Ni279      Ni  0.32166825  0.12399051  0.05418494     1.26300
O280        O  0.24084079  0.12471984  0.09204034    -0.66900
O281        O  0.35152771  0.07906759  0.04210083    -0.79200
C282        C  0.27954975  0.14849571  0.02066175     0.84300
O283        O  0.31623112  0.14730161  0.02764745    -0.66300
Ni284      Ni  0.37218382  0.08445664  0.09112809     1.27400
Ni285      Ni  0.29529938  0.14884606  0.09335338     1.26100
H286        H  0.31425226  0.19255414  0.06701641     0.38800
O287        O  0.80081995  0.93360392  0.12516429    -0.81100
O288        O  0.86666516  0.96966419  0.21497250    -0.65800
O289        O  0.81688868  0.96619262  0.16267663    -1.12400
C290        C  0.94342539  0.03649022  0.14659006     1.05800
O291        O  0.87173073  0.03786623  0.21161894    -0.79000
O292        O  0.86669207  0.08056890  0.17631960    -0.66600
Ni293      Ni  0.80174536  0.91290911  0.15249430     1.34900
C294        C  0.84202093  0.07809924  0.16150513     0.84500
O295        O  0.79762113  0.93488249  0.20131136    -0.79600
O296        O  0.79719343  0.88481198  0.17849845    -0.89800
C297        C  0.86738398  0.00578639  0.22265512     0.84100
O298        O  0.85916999  0.89983335  0.15099644    -0.68000
O299        O  0.94149391  0.05061015  0.16467591    -0.87300
C300        C  0.88171456  0.89525700  0.16662367     0.84900
C301        C  0.79086842  0.89755920  0.19648602     1.06500
H302        H  0.90984383  0.97579746  0.17594595     0.38300
O303        O  0.88582573  0.99334017  0.17615824    -1.10000
O304        O  0.83797369  0.04525633  0.15099565    -0.66600
Ni305      Ni  0.86458672  0.99170804  0.14973272     1.26300
O306        O  0.87331714  0.91410155  0.18335078    -0.66900
O307        O  0.91459618  0.01490352  0.13853886    -0.79200
C308        C  0.81739975  0.96294755  0.11519520     0.84300
O309        O  0.84301119  0.98829912  0.12282360    -0.66300
Ni310      Ni  0.90556697  0.04313957  0.18762407     1.27400
Ni311      Ni  0.84186067  0.96499681  0.18884843     1.26100
H312        H  0.79329818  0.98447455  0.16272280     0.38800
O313        O  0.86624291  0.09113874  0.37645529    -0.81100
O314        O  0.81567640  0.15813755  0.46473701    -0.65800
O315        O  0.82690765  0.10702559  0.41277313    -1.12400
C316        C  0.76869935  0.23698509  0.39233198     1.05800
O317        O  0.74981856  0.17196351  0.45830910    -0.79000
O318        O  0.71401213  0.17087202  0.42113825    -0.66600
Ni319      Ni  0.88094480  0.08967561  0.40463208     1.34900
C320        C  0.71581601  0.14242410  0.40787808     0.84500
O321        O  0.84981050  0.08655381  0.45268082    -0.79600
O322        O  0.90274356  0.08260928  0.43158603    -0.89800
C323        C  0.77852089  0.16292519  0.47072573     0.84100
O324        O  0.89916781  0.14567874  0.40470325    -0.68000
O325        O  0.75674451  0.24110742  0.41072551    -0.87300
C326        C  0.90049974  0.16800222  0.42063768     0.84900
C327        C  0.88670228  0.07555334  0.44881873     1.06500
H328        H  0.82255447  0.20033482  0.42440236     0.38300
O329        O  0.80238014  0.17829878  0.42452238    -1.10000
O330        O  0.74951095  0.13134259  0.39939944    -0.66600
Ni331      Ni  0.80473939  0.15439810  0.39838938     1.26300
O332        O  0.87795770  0.16065511  0.43629423    -0.66900
O333        O  0.78472810  0.20384241  0.38515290    -0.79200
C334        C  0.83674689  0.10466576  0.36567924     0.84300
O335        O  0.80896741  0.12889938  0.37231835    -0.66300
Ni336      Ni  0.75428891  0.20521505  0.43399762     1.27400
Ni337      Ni  0.82459094  0.13257438  0.43888101     1.26100
H338        H  0.80805665  0.08384043  0.41225788     0.38800
O339        O  0.13071680  0.47430617  0.37274373    -0.81100
O340        O  0.19711011  0.42153916  0.46087834    -0.65800
O341        O  0.17483356  0.46823631  0.40884635    -1.12400
C342        C  0.25186387  0.34822111  0.38794999     1.05800
O343        O  0.26367002  0.41758249  0.45304225    -0.79000
O344        O  0.29609731  0.42287613  0.41546988    -0.66600
Ni345      Ni  0.11880600  0.47894478  0.40139720     1.34900
C346        C  0.28842329  0.45031916  0.40231626     0.84500
O347        O  0.15318407  0.48691066  0.44933022    -0.79600
O348        O  0.09920337  0.48878368  0.42869844    -0.89800
C349        C  0.23491171  0.42140222  0.46609031     0.84100
O350        O  0.10499812  0.42169933  0.40385753    -0.68000
O351        O  0.26529342  0.34656347  0.40612647    -0.87300
C352        C  0.10756084  0.40075008  0.42018467     0.84900
C353        C  0.11551633  0.49515787  0.44591936     1.06500
H354        H  0.19337169  0.37740567  0.42108400     0.38300
O355        O  0.21044305  0.40211372  0.42056973    -1.10000
O356        O  0.25311525  0.45557176  0.39438291    -0.66600
Ni357      Ni  0.20272858  0.42402850  0.39440091     1.26300
O358        O  0.13302320  0.40967426  0.43442568    -0.66900
O359        O  0.22959198  0.37779439  0.38114578    -0.79200
C360        C  0.16180392  0.46565024  0.36164479     0.84300
O361        O  0.19365045  0.44741041  0.36828085    -0.66300
Ni362      Ni  0.26285688  0.38310336  0.42915807     1.27400
Ni363      Ni  0.18281496  0.44446588  0.43512664     1.26100
H364        H  0.19043217  0.49368321  0.40787394     0.38800
O365        O  0.63721244  0.53528650  0.28599782    -0.81100
O366        O  0.65895012  0.59825383  0.37339984    -0.65800
O367        O  0.61897469  0.58600746  0.31947237    -1.12400
C368        C  0.71906533  0.67672220  0.29805738     1.05800
O369        O  0.69385286  0.65763486  0.36980817    -0.79000
O370        O  0.64358916  0.68754508  0.33956814    -0.66600
Ni371      Ni  0.60040131  0.53444536  0.30921496     1.34900
C372        C  0.62321063  0.68713815  0.32310463     0.84500
O373        O  0.58815630  0.56757494  0.35746569    -0.79600
O374        O  0.56117134  0.53163041  0.33112475    -0.89800
C375        C  0.68100249  0.62753297  0.38045767     0.84100
O376        O  0.63782794  0.49862587  0.32310080    -0.68000
O377        O  0.70986435  0.69256620  0.31504987    -0.87300
C378        C  0.66249867  0.50376964  0.33780628     0.84900
C379        C  0.55933288  0.54637589  0.34909753     1.06500
H380        H  0.71017952  0.59861517  0.33481035     0.38300
O381        O  0.68615361  0.61610515  0.33351547    -1.10000
O382        O  0.63285587  0.66344638  0.30819728    -0.66600
Ni383      Ni  0.66445824  0.61189920  0.30668555     1.26300
O384        O  0.66616906  0.53810734  0.34714006    -0.66900
O385        O  0.71054935  0.63926392  0.29416720    -0.79200
C386        C  0.64147248  0.56559905  0.27382287     0.84300
O387        O  0.64235925  0.60257368  0.28032140    -0.66300
Ni388      Ni  0.69960565  0.67129888  0.34175788     1.27400
Ni389      Ni  0.63829275  0.59109073  0.34636992     1.26100
H390        H  0.59517860  0.60385863  0.31842718     0.38800
O391        O  0.37373935  0.04418866  0.28350988    -0.81100
O392        O  0.34977580  0.98385109  0.37014591    -0.65800
O393        O  0.39177660  0.99345464  0.31657491    -1.12400
C394        C  0.29536097  0.89783021  0.29544711     1.05800
O395        O  0.31901602  0.92196654  0.36745886    -0.79000
O396        O  0.37182321  0.89328588  0.33701655    -0.66600
Ni397      Ni  0.41119025  0.04455236  0.30624284     1.34900
C398        C  0.39123820  0.89329045  0.32017047     0.84500
O399        O  0.42074706  0.01572215  0.35476068    -0.79600
O400        O  0.45033575  0.04749336  0.32801511    -0.89800
C401        C  0.32931026  0.95389566  0.37761255     0.84100
O402        O  0.37508859  0.08113178  0.32032891    -0.68000
O403        O  0.30488059  0.88307320  0.31266552    -0.87300
C404        C  0.34765737  0.07615698  0.33385149     0.84900
C405        C  0.45104595  0.03511308  0.34640576     1.06500
H406        H  0.30035836  0.97779843  0.33175293     0.38300
O407        O  0.32529884  0.96153325  0.33058009    -1.10000
O408        O  0.38026351  0.91544314  0.30501172    -0.66600
Ni409      Ni  0.34698413  0.96588322  0.30373260     1.26300
O410        O  0.34164953  0.04157379  0.34266239    -0.66900
O411        O  0.30233628  0.93564081  0.29127965    -0.79200
C412        C  0.36716372  0.01422305  0.27138130     0.84300
O413        O  0.36817127  0.97690470  0.27736157    -0.66300
Ni414      Ni  0.31457421  0.90621388  0.33935674     1.27400
Ni415      Ni  0.37164426  0.98962639  0.34334959     1.26100
H416        H  0.41563207  0.97588131  0.31590823     0.38800
C417        C  0.58824251  0.71651031  0.32099597     0.01100
C418        C  0.56114303  0.72368486  0.33755099     0.03900
C419        C  0.52851257  0.75203171  0.33565518    -0.12100
C420        C  0.52384655  0.77499602  0.31772255     0.23200
C421        C  0.55057472  0.76818136  0.30121496    -0.12700
C422        C  0.58265732  0.73900351  0.30276234     0.04600
C423        C  0.49125202  0.80702798  0.31659515     0.27100
C424        C  0.45369445  0.79831913  0.30678438    -0.13400
C425        C  0.42210087  0.82809024  0.30662251     0.05100
C426        C  0.42652609  0.86499688  0.31787704    -0.09400
C427        C  0.46377094  0.87324425  0.32807720     0.06000
C428        C  0.49682539  0.84526042  0.32654945    -0.13700
Br429      Br  0.54332291  0.79948443  0.27656463    -0.05800
Br430      Br  0.56795936  0.69527223  0.36311572    -0.00200
Br431      Br  0.37227567  0.81717358  0.29166440     0.00300
Br432      Br  0.54966920  0.85896417  0.33822836    -0.04100
Br433      Br  0.62058335  0.73317862  0.28026889     0.00400
Br434      Br  0.48926186  0.75904110  0.35752036    -0.03400
Br435      Br  0.44473865  0.74462120  0.29467981    -0.04300
Br436      Br  0.46901514  0.92201896  0.34474156    -0.00300
C437        C  0.52045963  0.53937116  0.36031348     0.01100
C438        C  0.51365362  0.50158731  0.37036274     0.03900
C439        C  0.47490692  0.49298964  0.37908227    -0.12100
C440        C  0.44217374  0.52131464  0.37693428     0.23200
C441        C  0.44877228  0.55912380  0.36686492    -0.12700
C442        C  0.48792384  0.56823957  0.35862834     0.04600
C443        C  0.39981547  0.50854910  0.38278880     0.27100
C444        C  0.37620195  0.48500805  0.36905360    -0.13400
C445        C  0.33770381  0.46902165  0.37499111     0.05100
C446        C  0.32342406  0.47519692  0.39495633    -0.09400
C447        C  0.34606801  0.50034816  0.40842455     0.06000
C448        C  0.38406738  0.51752035  0.40222985    -0.13700
Br449      Br  0.40325871  0.59688503  0.36323766    -0.05800
Br450      Br  0.55605221  0.45993258  0.37046149    -0.00200
Br451      Br  0.30591755  0.43629918  0.35608998     0.00300
Br452      Br  0.41530036  0.55205921  0.42045669    -0.04100
Br453      Br  0.49578333  0.61851478  0.34337932     0.00400
Br454      Br  0.46568900  0.44117744  0.39291196    -0.03400
Br455      Br  0.39790637  0.47254510  0.34245213    -0.04300
Br456      Br  0.32492690  0.51100136  0.43529783    -0.00300
C457        C  0.32293376  0.11336323  0.33965831     0.01100
C458        C  0.31626674  0.12376047  0.36026800     0.03900
C459        C  0.30048366  0.16302645  0.36551941    -0.12100
C460        C  0.29219557  0.19259018  0.35039019     0.23200
C461        C  0.29616803  0.18149435  0.32985864    -0.12700
C462        C  0.31039347  0.14171973  0.32449604     0.04600
C463        C  0.28156901  0.23580709  0.35638493     0.27100
C464        C  0.24003053  0.24816999  0.35834256    -0.13400
C465        C  0.23028394  0.28691880  0.36700104     0.05100
C466        C  0.26204097  0.31277030  0.37449024    -0.09400
C467        C  0.30366833  0.30144244  0.37129129     0.06000
C468        C  0.31333450  0.26347904  0.36188386    -0.13700
Br469      Br  0.28381038  0.22158738  0.30912805    -0.05800
Br470      Br  0.33097953  0.08604624  0.38167689    -0.00200
Br471      Br  0.17323197  0.30302905  0.36978649     0.00300
Br472      Br  0.37019052  0.24849573  0.35701367    -0.04100
Br473      Br  0.31129138  0.12591855  0.29624645     0.00400
Br474      Br  0.29151660  0.17731777  0.39362313    -0.03400
Br475      Br  0.19656906  0.21086861  0.35018932    -0.04300
Br476      Br  0.34758880  0.33768316  0.38004921    -0.00300
C477        C  0.93038877  0.20263292  0.42140379     0.01100
C478        C  0.95608889  0.20748490  0.43849955     0.03900
C479        C  0.98271431  0.24171685  0.43991041    -0.12100
C480        C  0.98689227  0.26904180  0.42342547     0.23200
C481        C  0.96305657  0.26298158  0.40582969    -0.12700
C482        C  0.93399163  0.23060208  0.40502976     0.04600
C483        C  0.01804014  0.30270412  0.42412041     0.27100
C484        C  0.00554381  0.34417774  0.42633757    -0.13400
C485        C  0.03496375  0.37618488  0.42505253     0.05100
C486        C  0.07743039  0.36671550  0.42311623    -0.09400
C487        C  0.08999308  0.32490075  0.42285468     0.06000
C488        C  0.06030641  0.29314218  0.42229949    -0.13700
Br489      Br  0.97119723  0.29840383  0.38258830    -0.05800
Br490      Br  0.95867335  0.16501472  0.45901721    -0.00200
Br491      Br  0.01677281  0.43297901  0.42630773     0.00300
Br492      Br  0.07746372  0.23643328  0.41823055    -0.04100
Br493      Br  0.89893978  0.22541114  0.38154911     0.00400
Br494      Br  0.01374418  0.25111270  0.46443900    -0.03400
Br495      Br  0.94810308  0.35686542  0.43127016    -0.04300
Br496      Br  0.14733943  0.31001298  0.42349192    -0.00300
C497        C  0.68713606  0.46732063  0.34456402     0.01100
C498        C  0.68464106  0.45333566  0.36482811     0.03900
C499        C  0.70168881  0.41476620  0.37025750    -0.12100
C500        C  0.72431231  0.39137521  0.35597563     0.23200
C501        C  0.73016369  0.40707547  0.33629255    -0.12700
C502        C  0.71061085  0.44415546  0.33042862     0.04600
C503        C  0.74127766  0.35015688  0.36181032     0.27100
C504        C  0.77630366  0.34776232  0.37437427    -0.13400
C505        C  0.78692753  0.30989290  0.38350125     0.05100
C506        C  0.76416311  0.27370010  0.37910836    -0.09400
C507        C  0.73326865  0.27497430  0.36415186     0.06000
C508        C  0.72056319  0.31339037  0.35618562    -0.13700
Br509      Br  0.76525060  0.37766827  0.31748482    -0.05800
Br510      Br  0.65731995  0.48619732  0.38528334    -0.00200
Br511      Br  0.83223160  0.30769995  0.40238881     0.00300
Br512      Br  0.67281923  0.31601590  0.33885164    -0.04100
Br513      Br  0.71710893  0.46353051  0.30307346     0.00400
Br514      Br  0.69247254  0.39286512  0.39711196    -0.03400
Br515      Br  0.80859729  0.39680801  0.37964177    -0.04300
Br516      Br  0.70800953  0.22435684  0.35490525    -0.00300
C517        C  0.49015337  0.04306149  0.35801592     0.01100
C518        C  0.48976517  0.05535251  0.37864475     0.03900
C519        C  0.52707567  0.06529854  0.38865257    -0.12100
C520        C  0.56476848  0.06604187  0.37788655     0.23200
C521        C  0.56562569  0.05244344  0.35761798    -0.12700
C522        C  0.52895155  0.03959075  0.34797745     0.04600
C523        C  0.60256604  0.08495365  0.38710409     0.27100
C524        C  0.60577950  0.12839355  0.38848776    -0.13400
C525        C  0.64200848  0.14699874  0.39605208     0.05100
C526        C  0.67634779  0.12234080  0.40156487    -0.09400
C527        C  0.67272153  0.07876309  0.40062573     0.06000
C528        C  0.63582527  0.06019130  0.39364891    -0.13700
Br529      Br  0.61715208  0.05298619  0.34273665    -0.05800
Br530      Br  0.43848615  0.06253064  0.39303616    -0.00200
Br531      Br  0.64418543  0.20664890  0.39816478     0.00300
Br532      Br  0.63060965  0.00074162  0.39307403    -0.04100
Br533      Br  0.53313794  0.01567938  0.32114652     0.00400
Br534      Br  0.52688212  0.07888998  0.41714273    -0.03400
Br535      Br  0.56075247  0.16267358  0.37923972    -0.04300
Br536      Br  0.71743231  0.04428706  0.40989373    -0.00300
C537        C  0.77994110  0.86690650  0.21240956     0.01100
C538        C  0.74297847  0.87026966  0.22374212     0.03900
C539        C  0.73312205  0.84013599  0.23850430    -0.12100
C540        C  0.75997928  0.80651874  0.24176878     0.23200
C541        C  0.79701387  0.80354555  0.23083167    -0.12700
C542        C  0.80704325  0.83354217  0.21633942     0.04600
C543        C  0.74951641  0.77294582  0.25612794     0.27100
C544        C  0.76499367  0.77415487  0.27597849    -0.13400
C545        C  0.75952830  0.74000628  0.28886686     0.05100
C546        C  0.73616204  0.70525141  0.28241542    -0.09400
C547        C  0.72335867  0.70306782  0.26191496     0.06000
C548        C  0.72996723  0.73694319  0.24891025    -0.13700
Br549      Br  0.83405468  0.75762095  0.23576038    -0.05800
Br550      Br  0.70499207  0.91474243  0.21838134    -0.00200
Br551      Br  0.78665140  0.74017376  0.31494961     0.00300
Br552      Br  0.71253089  0.73433654  0.22094810    -0.04100
Br553      Br  0.85916318  0.82836388  0.20276448     0.00400
Br554      Br  0.68300296  0.84434747  0.25423117    -0.03400
Br555      Br  0.79402779  0.82275265  0.28536611    -0.04300
Br556      Br  0.69669711  0.65471792  0.25097856    -0.00300
C557        C  0.85895825  0.01205635  0.24438876     0.01100
C558        C  0.89030063  0.00604899  0.25881943     0.03900
C559        C  0.88424791  0.01923349  0.27897514    -0.15300
C560        C  0.84717652  0.03917266  0.28456929     0.23200
C561        C  0.81526738  0.04364565  0.27030896    -0.12700
C562        C  0.82099129  0.02967637  0.25031893     0.04600
C563        C  0.84223655  0.05681098  0.30520887     0.27100
C564        C  0.82539549  0.03255491  0.32090968    -0.13400
C565        C  0.82216578  0.04893629  0.34061546     0.05100
C566        C  0.83486313  0.08992252  0.34456720    -0.09400
C567        C  0.84979304  0.11482784  0.32866693     0.06000
C568        C  0.85403541  0.09812316  0.30905734    -0.13700
Br569      Br  0.76433614  0.07033448  0.27806565    -0.05800
Br570      Br  0.94223913  0.98207121  0.25063644    -0.00200
Br571      Br  0.80039794  0.01528376  0.36230994     0.00300
Br572      Br  0.87691921  0.13138513  0.28750624    -0.04100
Br573      Br  0.77690179  0.03490187  0.23089521     0.00400
Br574      Br  0.92709852  0.01138158  0.29882023    -0.03400
Br575      Br  0.80718451  0.97682290  0.31534179    -0.04300
Br576      Br  0.86525889  0.17143376  0.33390371    -0.00300
C577        C  0.35613310  0.02382206  0.25029465     0.01100
C578        C  0.38753256  0.02953771  0.23581142     0.03900
C579        C  0.37758445  0.04291996  0.21616816    -0.12100
C580        C  0.33616140  0.05144816  0.21106377     0.23200
C581        C  0.30462259  0.04544343  0.22555550    -0.12700
C582        C  0.31456989  0.03105850  0.24507379     0.04600
C583        C  0.32624221  0.06649178  0.19039016     0.27100
C584        C  0.33555594  0.10766737  0.18490440    -0.13400
C585        C  0.33308134  0.11992607  0.16449696     0.05100
C586        C  0.31844021  0.09196489  0.14979946    -0.09400
C587        C  0.30555197  0.05202780  0.15559400     0.06000
C588        C  0.31078831  0.03878499  0.17571828    -0.13700
Br589      Br  0.24813003  0.05829885  0.21882332    -0.05800
Br590      Br  0.44427180  0.01952392  0.24311393    -0.00200
Br591      Br  0.35327418  0.17361235  0.15632261     0.00300
Br592      Br  0.29977755  0.98190727  0.18285117    -0.04100
Br593      Br  0.27141124  0.02155701  0.26474645     0.00400
Br594      Br  0.42083245  0.05001192  0.19626575    -0.03400
Br595      Br  0.35347256  0.14662152  0.20524859    -0.04300
Br596      Br  0.28127104  0.01543808  0.13580632    -0.00300
C597        C  0.98226171  0.04469309  0.13492722     0.01100
C598        C  0.98204573  0.05050080  0.11360520     0.03900
C599        C  0.01907613  0.05989482  0.10323318    -0.12100
C600        C  0.05622617  0.06474237  0.11400508     0.23200
C601        C  0.05700181  0.05770369  0.13499564    -0.12700
C602        C  0.02066057  0.04652117  0.14534580     0.04600
C603        C  0.09379311  0.08110735  0.10379809     0.27100
C604        C  0.12690284  0.05470541  0.09875835    -0.13400
C605        C  0.16452128  0.07146072  0.09166344     0.05100
C606        C  0.16843676  0.11460615  0.08868863    -0.09400
C607        C  0.13424790  0.14066336  0.09275072     0.06000
C608        C  0.09755351  0.12402763  0.10074715    -0.13700
Br609      Br  0.10807200  0.06506304  0.14972851    -0.05800
Br610      Br  0.93148545  0.04797147  0.09824435    -0.00200
Br611      Br  0.21018362  0.03508747  0.08571864     0.00300
Br612      Br  0.05291482  0.16036614  0.10865477    -0.04100
Br613      Br  0.02542741  0.03154479  0.17366321     0.00400
Br614      Br  0.01916226  0.06751804  0.07422005    -0.03400
Br615      Br  0.12057427  0.99568579  0.10192872    -0.04300
Br616      Br  0.13761205  0.19979154  0.08852898    -0.00300
C617        C  0.27878692  0.86824821  0.27986499     0.01100
C618        C  0.25130133  0.83622133  0.28590718     0.03900
C619        C  0.24108477  0.80382610  0.27244930    -0.12100
C620        C  0.25653855  0.80369356  0.25249834     0.23200
C621        C  0.28325853  0.83560937  0.24619580    -0.12700
C622        C  0.29471904  0.86746093  0.25978153     0.04600
C623        C  0.24287473  0.77101939  0.23791698     0.27100
C624        C  0.26625573  0.73466669  0.23492935    -0.13400
C625        C  0.25254078  0.70376970  0.22127229     0.05100
C626        C  0.21497356  0.70875794  0.21072816    -0.09400
C627        C  0.19082927  0.74441909  0.21460244     0.06000
C628        C  0.20533390  0.77587936  0.22753916    -0.13700
Br629      Br  0.30538866  0.83443591  0.21898705    -0.05800
Br630      Br  0.22632058  0.83657435  0.31254632    -0.00200
Br631      Br  0.28582631  0.65528989  0.21664849     0.00300
Br632      Br  0.17410532  0.82639096  0.23079295    -0.04100
Br633      Br  0.33515693  0.90721003  0.25085859     0.00400
Br634      Br  0.20696009  0.75832961  0.28147773    -0.03400
Br635      Br  0.31746099  0.72785545  0.24935310    -0.04300
Br636      Br  0.13600092  0.74922241  0.20378374    -0.00300
C637        C  0.13635271  0.55042350  0.23870460     0.01100
C638        C  0.10213831  0.54022706  0.25095136     0.03900
C639        C  0.10822216  0.52549187  0.27079124    -0.12100
C640        C  0.14859478  0.52017877  0.27832791     0.23200
C641        C  0.18283469  0.52976305  0.26592753    -0.12700
C642        C  0.17669254  0.54456808  0.24610405     0.04600
C643        C  0.15476339  0.50590557  0.29953231     0.27100
C644        C  0.15411153  0.53495872  0.31544088    -0.13400
C645        C  0.15742948  0.52167941  0.33566665     0.05100
C646        C  0.16094268  0.47911307  0.34017727    -0.09400
C647        C  0.16287209  0.45008655  0.32420315     0.06000
C648        C  0.15984264  0.46348738  0.30390990    -0.13700
Br649      Br  0.23807118  0.52221059  0.27608680    -0.05800
Br650      Br  0.04704501  0.54485225  0.24015169    -0.00200
Br651      Br  0.15860842  0.56217857  0.35719286     0.00300
Br652      Br  0.16179351  0.42385043  0.28205172    -0.04100
Br653      Br  0.22344587  0.55493015  0.22862559     0.00400
Br654      Br  0.06132391  0.51216816  0.28767982    -0.03400
Br655      Br  0.14813504  0.59307493  0.30938155    -0.04300
Br656      Br  0.16762286  0.39188967  0.33013438    -0.00300
C657        C  0.07713429  0.71158565  0.16572774     0.01100
C658        C  0.08344366  0.75093899  0.15656097     0.03900
C659        C  0.05175246  0.78075284  0.15660696    -0.12100
C660        C  0.01358071  0.77212742  0.16592216     0.23200
C661        C  0.00737847  0.73372668  0.17556215    -0.12700
C662        C  0.03901438  0.70368992  0.17566495     0.04600
C663        C  0.98023394  0.80390387  0.16588715     0.27100
C664        C  0.98160986  0.83729260  0.17956579    -0.13400
C665        C  0.95116397  0.86843606  0.17900691     0.05100
C666        C  0.91674596  0.86475102  0.16576574    -0.09400
C667        C  0.91478585  0.82966540  0.15264274     0.06000
C668        C  0.94733857  0.80073191  0.15212820    -0.13700
Br669      Br  0.95528013  0.72274028  0.18887676    -0.05800
Br670      Br  0.13670396  0.76675361  0.14557008    -0.00200
Br671      Br  0.95856327  0.91601365  0.19638635     0.00300
Br672      Br  0.94706873  0.75609873  0.13257613    -0.04100
Br673      Br  0.02909920  0.65215157  0.18958580     0.00400
Br674      Br  0.06071950  0.83419950  0.14418842    -0.03400
Br675      Br  0.02525775  0.83962829  0.19944618    -0.04300
Br676      Br  0.86635610  0.81731101  0.13656928    -0.00300
C677        C  0.25050416  0.26915516  0.10773511     0.01100
C678        C  0.22126041  0.27085095  0.12354840     0.03900
C679        C  0.20938383  0.30944661  0.13160996    -0.12100
C680        C  0.22876476  0.34608667  0.12481872     0.23200
C681        C  0.26131994  0.34373555  0.11064843    -0.12700
C682        C  0.27167269  0.30544634  0.10185782     0.04600
C683        C  0.21346998  0.38710026  0.13174422     0.27100
C684        C  0.18784194  0.41064751  0.11894796    -0.13400
C685        C  0.17193928  0.44878393  0.12566026     0.05100
C686        C  0.17997706  0.46260955  0.14557825    -0.09400
C687        C  0.20637223  0.43959171  0.15817722     0.06000
C688        C  0.22360411  0.40220081  0.15115943    -0.13700
Br689      Br  0.29108266  0.39317721  0.10305985    -0.05800
Br690      Br  0.19710553  0.22056458  0.13392733    -0.00200
Br691      Br  0.13774061  0.48108926  0.10771793     0.00300
Br692      Br  0.26060790  0.37120358  0.16818323    -0.04100
Br693      Br  0.31547735  0.30247715  0.08197762     0.00400
Br694      Br  0.16502233  0.31239778  0.15114330    -0.03400
Br695      Br  0.17278837  0.38955244  0.09256910    -0.04300
Br696      Br  0.21947465  0.45989598  0.18488531    -0.00300
C697        C  0.66347572  0.48404646  0.15035671     0.01100
C698        C  0.64460608  0.46036815  0.16570961     0.03900
C699        C  0.64255500  0.47575873  0.18566473    -0.12100
C700        C  0.65876004  0.51521429  0.19025397     0.23200
C701        C  0.67896706  0.53825662  0.17502562    -0.12700
C702        C  0.68171586  0.52245382  0.15515404     0.04600
C703        C  0.65560614  0.53168927  0.21125983     0.27100
C704        C  0.61934125  0.55192090  0.21783247    -0.13400
C705        C  0.61539128  0.56479855  0.23816606     0.05100
C706        C  0.64746441  0.55705813  0.25200633    -0.09400
C707        C  0.68467216  0.53926106  0.24510488     0.06000
C708        C  0.68858590  0.52618089  0.22484615    -0.13700
Br709      Br  0.70297898  0.59131669  0.18151144    -0.05800
Br710      Br  0.62224237  0.40654911  0.15934333    -0.00200
Br711      Br  0.56594888  0.59254962  0.24721826     0.00300
Br712      Br  0.73878439  0.49985691  0.21570924    -0.04100
Br713      Br  0.71099605  0.55296349  0.13450697     0.00400
Br714      Br  0.61831831  0.44257079  0.20688400    -0.03400
Br715      Br  0.57481968  0.56107364  0.19904795    -0.04300
Br716      Br  0.73112840  0.53500478  0.26310694    -0.00300
C717        C  0.57413845  0.35911340  0.07673479     0.01100
C718        C  0.53588225  0.36371695  0.08726059     0.03900
C719        C  0.50581173  0.33231104  0.08643071    -0.12100
C720        C  0.51291279  0.29643165  0.07495459     0.23200
C721        C  0.55016860  0.29170750  0.06419688    -0.12700
C722        C  0.58105690  0.32244675  0.06533540     0.04600
C723        C  0.48162556  0.26285132  0.07507206     0.27100
C724        C  0.48329745  0.23225450  0.09010272    -0.13400
C725        C  0.45289090  0.20112546  0.09104405     0.05100
C726        C  0.42068620  0.19965258  0.07630610    -0.09400
C727        C  0.41880722  0.23172445  0.06151924     0.06000
C728        C  0.44914860  0.26302308  0.06104001    -0.13700
Br729      Br  0.55825074  0.24294782  0.04770092    -0.05800
Br730      Br  0.52189454  0.41356840  0.10207994    -0.00200
Br731      Br  0.45791847  0.16101211  0.11271439     0.00300
Br732      Br  0.44641429  0.30698695  0.04125096    -0.04100
Br733      Br  0.63310886  0.31245340  0.05185193     0.00400
Br734      Br  0.45390427  0.33835663  0.10076115    -0.03400
Br735      Br  0.52808140  0.23339583  0.10945656    -0.04300
Br736      Br  0.37439438  0.23547548  0.04207425    -0.00300
C737        C  0.02079369  0.52728322  0.12828256     0.01100
C738        C  0.99504671  0.55950283  0.12138719     0.03900
C739        C  0.95620488  0.55015435  0.11301225    -0.12100
C740        C  0.94324204  0.50867646  0.11134846     0.23200
C741        C  0.96971651  0.47642702  0.11739104    -0.12700
C742        C  0.00824043  0.48569866  0.12604523     0.04600
C743        C  0.90062980  0.49873683  0.10477091     0.27100
C744        C  0.86973651  0.49184243  0.11944422    -0.13400
C745        C  0.83097595  0.47608798  0.11363931     0.05100
C746        C  0.82227108  0.46914771  0.09287400    -0.09400
C747        C  0.85217135  0.48008896  0.07811554     0.06000
C748        C  0.89159909  0.49369526  0.08409781    -0.13700
Br749      Br  0.95216460  0.41954784  0.11466534    -0.05800
Br750      Br  0.01089659  0.61659633  0.12539299    -0.00200
Br751      Br  0.79229818  0.46023805  0.13459538     0.00300
Br752      Br  0.93409432  0.50353645  0.06410554    -0.04100
Br753      Br  0.04311164  0.44138070  0.13557009     0.00400
Br754      Br  0.91941624  0.59406449  0.10504834    -0.03400
Br755      Br  0.88159856  0.50236152  0.14766942    -0.04300
Br756      Br  0.83928331  0.47687070  0.04959571    -0.00300
C757        C  0.75738078  0.31194237  0.11792996     0.01100
C758        C  0.79830088  0.30548353  0.12436947     0.03900
C759        C  0.80879237  0.26868938  0.13455514    -0.12100
C760        C  0.77818113  0.23867737  0.13867737     0.23200
C761        C  0.73674457  0.24660452  0.13353337    -0.12700
C762        C  0.72649303  0.28274870  0.12279231     0.04600
C763        C  0.79054955  0.19624666  0.14488158     0.27100
C764        C  0.80093063  0.16729119  0.12976705    -0.13400
C765        C  0.81476876  0.12749480  0.13505246     0.05100
C766        C  0.81901947  0.11637673  0.15573130    -0.09400
C767        C  0.80572137  0.14478819  0.17084699     0.06000
C768        C  0.79194094  0.18466528  0.16540147    -0.13700
Br769      Br  0.69470588  0.20623499  0.13987073    -0.05800
Br770      Br  0.84017242  0.34622019  0.11828563    -0.00200
Br771      Br  0.82947922  0.08997446  0.11341421     0.00300
Br772      Br  0.77571393  0.22396308  0.18596387    -0.04100
Br773      Br  0.67106654  0.29003078  0.11270161     0.00400
Br774      Br  0.86558587  0.25768975  0.14141642    -0.03400
Br775      Br  0.79755969  0.18317208  0.10157046    -0.04300
Br776      Br  0.80456555  0.12907017  0.19907811    -0.00300
C777        C  0.73229228  0.42117678  0.00336769     0.01100
C778        C  0.73881663  0.46239567  0.99704851     0.03900
C779        C  0.75108195  0.47087946  0.97694599    -0.12100
C780        C  0.75749886  0.43815753  0.96314735     0.23200
C781        C  0.74989882  0.39703502  0.96934655    -0.12700
C782        C  0.73713729  0.38863024  0.98937611     0.04600
C783        C  0.77205863  0.44683043  0.94210284     0.27100
C784        C  0.74325430  0.45086386  0.92629033    -0.13400
C785        C  0.75699047  0.45533502  0.90613250     0.05100
C786        C  0.79970973  0.45731891  0.90168951    -0.09400
C787        C  0.82849075  0.45555344  0.91765076     0.06000
C788        C  0.81470775  0.44963880  0.93776482    -0.13700
Br789      Br  0.75745169  0.35220733  0.95038699    -0.05800
Br790      Br  0.73123319  0.50721021  0.01601441    -0.00200
Br791      Br  0.71705214  0.45813890  0.88450505     0.00300
Br792      Br  0.85419960  0.44328833  0.95933369    -0.04100
Br793      Br  0.72657276  0.33251821  0.99785454     0.00400
Br794      Br  0.75912392  0.52724756  0.96816997    -0.03400
Br795      Br  0.68489885  0.44928671  0.93232681    -0.04300
Br796      Br  0.88684850  0.45834551  0.91179031    -0.00300
C797        C  0.19388586  0.11378799  0.89894527     0.01100
C798        C  0.17507897  0.14060480  0.91305696     0.03900
C799        C  0.19055279  0.14345966  0.93292450    -0.12100
C800        C  0.22465535  0.11919715  0.93878151     0.23200
C801        C  0.24202988  0.09078768  0.92496698    -0.12700
C802        C  0.22696223  0.08841807  0.90500189     0.04600
C803        C  0.24223375  0.12386169  0.95944507     0.27100
C804        C  0.27271012  0.15411718  0.96329591    -0.13400
C805        C  0.28700345  0.16076472  0.98320923     0.05100
C806        C  0.27060743  0.13732161  0.99935178    -0.09400
C807        C  0.24128503  0.10588651  0.99528932     0.06000
C808        C  0.22727190  0.09915752  0.97539881    -0.13700
Br809      Br  0.28667073  0.05546788  0.93345015    -0.05800
Br810      Br  0.12806620  0.17331121  0.90506005    -0.00200
Br811      Br  0.32665500  0.20399609  0.98852095     0.00300
Br812      Br  0.18659963  0.05686112  0.96994969    -0.04100
Br813      Br  0.25291919  0.05198814  0.88561935     0.00400
Br814      Br  0.16538821  0.18083291  0.95214158    -0.03400
Br815      Br  0.29354173  0.18748480  0.94129971    -0.04300
Br816      Br  0.22001365  0.07181975  0.01701022    -0.00300
C817        C  0.07846208  0.20759265  0.82542878     0.01100
C818        C  0.04053539  0.20015587  0.81534551     0.03900
C819        C  0.00882828  0.22997307  0.81595510    -0.12100
C820        C  0.01476014  0.26766011  0.82625498     0.23200
C821        C  0.05206180  0.27534230  0.83638524    -0.12700
C822        C  0.08388722  0.24573789  0.83598199     0.04600
C823        C  0.98140734  0.29915059  0.82668003     0.27100
C824        C  0.98181618  0.33217243  0.81283922    -0.13400
C825        C  0.94989431  0.36182656  0.81305215     0.05100
C826        C  0.91669527  0.35838162  0.82717804    -0.09400
C827        C  0.91686509  0.32463669  0.84112628     0.06000
C828        C  0.94932287  0.29571810  0.84091674    -0.13700
Br829      Br  0.05917678  0.32692342  0.85088728    -0.05800
Br830      Br  0.03041671  0.14915338  0.80095228    -0.00200
Br831      Br  0.95353782  0.40691864  0.79388713     0.00300
Br832      Br  0.94993682  0.25034208  0.86002156    -0.04100
Br833      Br  0.13557648  0.26018372  0.84892683     0.00400
Br834      Br  0.95650657  0.21921517  0.80294476    -0.03400
Br835      Br  0.02656406  0.33624421  0.79345799    -0.04300
Br836      Br  0.87183044  0.31433574  0.85988425    -0.00300
C837        C  0.41889938  0.54959979  0.95909845     0.01100
C838        C  0.45131977  0.52315313  0.95251295     0.03900
C839        C  0.48318452  0.51190970  0.96588505    -0.12100
C840        C  0.48282688  0.52629511  0.98599984     0.23200
C841        C  0.44926352  0.54984670  0.99309596    -0.12700
C842        C  0.41726789  0.56132035  0.97982252     0.04600
C843        C  0.51633091  0.51432200  0.00015734     0.27100
C844        C  0.51417317  0.47595202  0.01006411    -0.13400
C845        C  0.54477704  0.46479709  0.02405071     0.05100
C846        C  0.57713076  0.49256260  0.02890869    -0.09400
C847        C  0.58007343  0.53047814  0.01840078     0.06000
C848        C  0.54969808  0.54131949  0.00403903    -0.13700
Br849      Br  0.44753529  0.56644148  0.02123199    -0.05800
Br850      Br  0.45177473  0.50021549  0.92541230    -0.00200
Br851      Br  0.54289129  0.41017233  0.03543346     0.00300
Br852      Br  0.55290898  0.59352166  0.98998269    -0.04100
Br853      Br  0.37265707  0.59407694  0.99061004     0.00400
Br854      Br  0.52755617  0.47647121  0.95678544    -0.03400
Br855      Br  0.46837831  0.43902945  0.00473807    -0.04300
Br856      Br  0.62478745  0.56811523  0.02412826    -0.00300
C857        C  0.26915866  0.63462141  0.98969250     0.01100
C858        C  0.25729368  0.59436878  0.99560010     0.03900
C859        C  0.24411031  0.58680218  0.01562869    -0.12100
C860        C  0.24154479  0.61976721  0.02958952     0.23200
C861        C  0.25380296  0.65990586  0.02366355    -0.12700
C862        C  0.26830355  0.66711904  0.00386531     0.04600
C863        C  0.22564337  0.61297336  0.05048688     0.27100
C864        C  0.18280885  0.61402053  0.05439626    -0.13400
C865        C  0.16805429  0.61376701  0.07451683     0.05100
C866        C  0.19619203  0.61410805  0.09080184    -0.09400
C867        C  0.23893552  0.61030143  0.08681680     0.06000
C868        C  0.25352926  0.60918396  0.06669644    -0.13700
Br869      Br  0.24898825  0.70539837  0.04248916    -0.05800
Br870      Br  0.25894489  0.54976776  0.97615165    -0.00200
Br871      Br  0.10936311  0.61461285  0.07970037     0.00300
Br872      Br  0.31176348  0.60292621  0.06112862    -0.04100
Br873      Br  0.28594497  0.72175894  0.99587219     0.00400
Br874      Br  0.22902464  0.53160459  0.02393462    -0.03400
Br875      Br  0.14453110  0.61752101  0.03213199    -0.04300
Br876      Br  0.27751964  0.60532215  0.10890029    -0.00300
C877        C  0.98104092  0.52820063  0.86253591     0.01100
C878        C  0.98270071  0.55742453  0.87835891     0.03900
C879        C  0.02134704  0.57124539  0.88555564    -0.12100
C880        C  0.05825066  0.55314087  0.87824752     0.23200
C881        C  0.05603177  0.52013837  0.86430002    -0.12700
C882        C  0.01762053  0.50801189  0.85632689     0.04600
C883        C  0.09934430  0.56889080  0.88498541     0.27100
C884        C  0.12382995  0.59295364  0.87174638    -0.13400
C885        C  0.16313355  0.60694708  0.87785745     0.05100
C886        C  0.17681255  0.60007724  0.89788841    -0.09400
C887        C  0.15193892  0.57654274  0.91122902     0.06000
C888        C  0.11423356  0.55952800  0.90449282    -0.13700
Br889      Br  0.10583279  0.49236873  0.85566109    -0.05800
Br890      Br  0.93234898  0.57821583  0.89023531    -0.00200
Br891      Br  0.19722231  0.63722242  0.85889066     0.00300
Br892      Br  0.08300942  0.52290406  0.92183661    -0.04100
Br893      Br  0.01479991  0.46267189  0.83725584     0.00400
Br894      Br  0.02378549  0.61697941  0.90431214    -0.03400
Br895      Br  0.10260689  0.60843329  0.84552159    -0.04300
Br896      Br  0.16938566  0.56745085  0.93875854    -0.00300
C897        C  0.23990326  0.75949226  0.88049147     0.01100
C898        C  0.19774317  0.76820252  0.87719349     0.03900
C899        C  0.18602528  0.80535539  0.86763745    -0.12100
C900        C  0.21621070  0.83481604  0.86210394     0.23200
C901        C  0.25830834  0.82583077  0.86505587    -0.12700
C902        C  0.27006673  0.78836598  0.87425559     0.04600
C903        C  0.20342618  0.87658054  0.85492468     0.27100
C904        C  0.20164189  0.88554036  0.83408477    -0.13400
C905        C  0.18760494  0.92453038  0.82742671     0.05100
C906        C  0.17457217  0.95481235  0.84161219    -0.09400
C907        C  0.17747316  0.94590964  0.86260119     0.06000
C908        C  0.19225108  0.90715969  0.86914644    -0.13700
Br909      Br  0.29971735  0.86586266  0.85731180    -0.05800
Br910      Br  0.15586050  0.73021203  0.88665397    -0.00200
Br911      Br  0.18709844  0.93633696  0.79875735     0.00300
Br912      Br  0.19622672  0.89516079  0.89775700    -0.04100
Br913      Br  0.32721977  0.77894626  0.88044875     0.00400
Br914      Br  0.12851454  0.81656965  0.86246729    -0.03400
Br915      Br  0.21766715  0.84373861  0.81470871    -0.04300
Br916      Br  0.15790892  0.98472298  0.88273793    -0.00300
C917        C  0.57992077  0.01003031  0.96075464     0.01100
C918        C  0.55398188  0.04412028  0.95653201     0.03900
C919        C  0.52192593  0.05487893  0.97006588    -0.12100
C920        C  0.51541391  0.03156213  0.98780538     0.23200
C921        C  0.54149945  0.99805242  0.99222535    -0.12700
C922        C  0.57319474  0.98691855  0.97866969     0.04600
C923        C  0.48220086  0.04301538  0.00235455     0.27100
C924        C  0.49114018  0.07049443  0.01821950    -0.13400
C925        C  0.46071827  0.08018362  0.03272092     0.05100
C926        C  0.42078178  0.06165745  0.03172935    -0.09400
C927        C  0.41219049  0.03374672  0.01573460     0.06000
C928        C  0.44267613  0.02491967  0.00099554    -0.13700
Br929      Br  0.53334079  0.96715515  0.01696750    -0.05800
Br930      Br  0.56232427  0.07641032  0.93227803    -0.00200
Br931      Br  0.47507380  0.12035996  0.05321228     0.00300
Br932      Br  0.43079427  0.98759856  0.97892362    -0.04100
Br933      Br  0.60398238  0.93725606  0.98404019     0.00400
Br934      Br  0.48680317  0.10164785  0.96450561    -0.03400
Br935      Br  0.54579656  0.09462571  0.01999727    -0.04300
Br936      Br  0.35988441  0.00514314  0.01458120    -0.00300
C937        C  0.73289236  0.93404864  0.99310092     0.01100
C938        C  0.74697142  0.97421742  0.99793423     0.03900
C939        C  0.76184851  0.98314381  0.01752612    -0.12100
C940        C  0.76230911  0.95203390  0.03246555     0.23200
C941        C  0.74727835  0.91213407  0.02776866    -0.12700
C942        C  0.73281131  0.90312739  0.00811359     0.04600
C943        C  0.77842313  0.96088916  0.05316360     0.27100
C944        C  0.81988038  0.95192804  0.05802534    -0.13400
C945        C  0.83346041  0.95468332  0.07826916     0.05100
C946        C  0.80581057  0.96708112  0.09364389    -0.09400
C947        C  0.76536943  0.97919425  0.08851941     0.06000
C948        C  0.75155985  0.97571218  0.06836709    -0.13700
Br949      Br  0.74764702  0.86954428  0.04822584    -0.05800
Br950      Br  0.74635624  0.01683434  0.97750036    -0.00200
Br951      Br  0.88908586  0.93891814  0.08519822     0.00300
Br952      Br  0.69534237  0.98958317  0.06164118    -0.04100
Br953      Br  0.71463225  0.84796113  0.00140884     0.00400
Br954      Br  0.78285725  0.03752615  0.02381751    -0.03400
Br955      Br  0.85751930  0.93445995  0.03700629    -0.04300
Br956      Br  0.72898363  0.00052622  0.10923344    -0.00300
C957        C  0.42996696  0.69936861  0.91944057     0.01100
C958        C  0.45344497  0.70550001  0.93732731     0.03900
C959        C  0.48343643  0.73726009  0.93824576    -0.12100
C960        C  0.48970045  0.76373605  0.92158705     0.23200
C961        C  0.46682179  0.75764587  0.90375442    -0.12700
C962        C  0.43824329  0.72485382  0.90236573     0.04600
C963        C  0.52076549  0.79778274  0.92249588     0.27100
C964        C  0.50936253  0.83690707  0.93009831    -0.13400
C965        C  0.53763226  0.87011447  0.92950102     0.05100
C966        C  0.57754180  0.86443510  0.92126611    -0.09400
C967        C  0.58871115  0.82540540  0.91342406     0.06000
C968        C  0.56060737  0.79205675  0.91425126    -0.13700
Br969      Br  0.47497692  0.79468963  0.88111189    -0.05800
Br970      Br  0.44818096  0.66815381  0.96002656    -0.00200
Br971      Br  0.52054357  0.92399305  0.93882701     0.00300
Br972      Br  0.57606696  0.73869232  0.90352166    -0.04100
Br973      Br  0.41238430  0.71477590  0.87646961     0.00400
Br974      Br  0.51715039  0.74400647  0.96209204    -0.03400
Br975      Br  0.45422139  0.84523192  0.94052063    -0.04300
Br976      Br  0.64177584  0.81807720  0.90067251    -0.00300
C977        C  0.82814385  0.96892816  0.90471996     0.01100
C978        C  0.86011613  0.97538063  0.91911481     0.03900
C979        C  0.89960073  0.98824594  0.91269799    -0.12100
C980        C  0.90676522  0.99732799  0.89219486     0.23200
C981        C  0.87416063  0.99535608  0.87820783    -0.12700
C982        C  0.83510219  0.98080354  0.88427869     0.04600
C983        C  0.94877472  0.00758767  0.88483958     0.27100
C984        C  0.96003184  0.04920274  0.88173281    -0.13400
C985        C  0.99626598  0.05873246  0.87088184     0.05100
C986        C  0.02164065  0.02653331  0.86354037    -0.09400
C987        C  0.01177199  0.98501176  0.86786433     0.06000
C988        C  0.97536557  0.97552892  0.87854599    -0.13700
Br989      Br  0.88399059  0.01079798  0.85028368    -0.05800
Br990      Br  0.85026937  0.96830897  0.94783034    -0.00200
Br991      Br  0.00903668  0.11564764  0.86450302     0.00300
Br992      Br  0.96093219  0.91859621  0.88386821    -0.04100
Br993      Br  0.79324244  0.97515983  0.86368062     0.00400
Br994      Br  0.94463388  0.99192878  0.93172302    -0.03400
Br995      Br  0.92450545  0.09279964  0.89153096    -0.04300
Br996      Br  0.04781360  0.94118262  0.85874204    -0.00300
C997        C  0.76196790  0.80426258  0.88430483     0.01100
C998        C  0.77567163  0.80659204  0.86390572     0.03900
C999        C  0.78624356  0.77012956  0.85321463    -0.12100
C1000       C  0.78457582  0.73129506  0.86293805     0.23200
C1001       C  0.77015403  0.72879412  0.88303797    -0.12700
C1002       C  0.75803438  0.76472652  0.89351865     0.04600
C1003       C  0.80077244  0.69313107  0.85292361     0.27100
C1004       C  0.77352812  0.66198317  0.84608900    -0.13400
C1005       C  0.78880414  0.62264762  0.84042139     0.05100
C1006       C  0.83169994  0.61474393  0.84076318    -0.09400
C1007       C  0.85909979  0.64727773  0.84617017     0.06000
C1008       C  0.84363224  0.68591836  0.85249942    -0.13700
Br1009     Br  0.76829271  0.67573373  0.89656041    -0.05800
Br1010     Br  0.78281540  0.85943204  0.85071529    -0.00200
Br1011     Br  0.75098848  0.58024425  0.83155330     0.00300
Br1012     Br  0.88127745  0.72879921  0.86133124    -0.04100
Br1013     Br  0.73445144  0.75829274  0.92035046     0.00400
Br1014     Br  0.80387213  0.77315897  0.82529710    -0.03400
Br1015     Br  0.71521679  0.67364696  0.84459178    -0.04300
Br1016     Br  0.91827281  0.63927706  0.84582567    -0.00300
C1017       C  0.72385930  0.19402936  0.71490738     0.01100
C1018       C  0.70157282  0.20053418  0.73312824     0.03900
C1019       C  0.71097226  0.23471061  0.74565253    -0.12100
C1020       C  0.74330172  0.26198995  0.74042366     0.23200
C1021       C  0.76694475  0.25427913  0.72285952    -0.12700
C1022       C  0.75756381  0.22025311  0.71030343     0.04600
C1023       C  0.75543077  0.29581103  0.75464054     0.27100
C1024       C  0.73555822  0.33465288  0.75441267    -0.13400
C1025       C  0.74619906  0.36548878  0.76875966     0.05100
C1026       C  0.77773786  0.35811241  0.78308704    -0.09400
C1027       C  0.79784021  0.31897798  0.78294143     0.06000
C1028       C  0.78646249  0.28815521  0.76894799    -0.13700
Br1029     Br  0.81195766  0.29083495  0.71591082    -0.05800
Br1030     Br  0.65690583  0.16426269  0.74079828    -0.00200
Br1031     Br  0.71511997  0.41630081  0.76976403     0.00300
Br1032     Br  0.81320637  0.23459341  0.76938466    -0.04100
Br1033     Br  0.79212161  0.20839355  0.68711547     0.00400
Br1034     Br  0.67894550  0.24505921  0.76985992    -0.03400
Br1035     Br  0.69352295  0.34518933  0.73446707    -0.04300
Br1036     Br  0.84208349  0.30629048  0.80135936    -0.00300
C1037       C  0.76716125  0.15468184  0.49216395     0.01100
C1038       C  0.76149334  0.18765529  0.50589291     0.03900
C1039       C  0.74752545  0.17986201  0.52584097    -0.12100
C1040       C  0.73904605  0.13898888  0.53221317     0.23200
C1041       C  0.74541056  0.10597460  0.51854323    -0.12700
C1042       C  0.75870590  0.11384924  0.49851646     0.04600
C1043       C  0.72301150  0.13080878  0.55316501     0.27100
C1044       C  0.75062799  0.12199951  0.56904802    -0.13400
C1045       C  0.73572974  0.11599463  0.58895098     0.05100
C1046       C  0.69305123  0.11863478  0.59323558    -0.09400
C1047       C  0.66518210  0.12562711  0.57720936     0.06000
C1048       C  0.68014945  0.13198928  0.55727069    -0.13700
Br1049     Br  0.73569992  0.04990537  0.52732066    -0.05800
Br1050     Br  0.77208337  0.24358056  0.49711622    -0.00200
Br1051     Br  0.77385276  0.10344599  0.61049450     0.00300
Br1052     Br  0.64216647  0.14332189  0.53553839    -0.04100
Br1053     Br  0.76328518  0.06885537  0.47939745     0.00400
Br1054     Br  0.73975095  0.22516358  0.54449693    -0.03400
Br1055     Br  0.80907196  0.11882364  0.56350952    -0.04300
Br1056     Br  0.60671407  0.12774782  0.58270861    -0.00300
C1057       C  0.67745501  0.97614407  0.84276153     0.01100
C1058       C  0.67067124  0.94786493  0.82686011     0.03900
C1059       C  0.66767724  0.96212456  0.80672144    -0.12100
C1060       C  0.67291011  0.00453401  0.80228952     0.23200
C1061       C  0.68386121  0.03212713  0.81794835    -0.12700
C1062       C  0.68533239  0.01813273  0.83818631     0.04600
C1063       C  0.66333946  0.02017999  0.78154981     0.27100
C1064       C  0.69349860  0.01947161  0.76609214    -0.13400
C1065       C  0.68286253  0.03045157  0.74609586     0.05100
C1066       C  0.64188128  0.04147534  0.74135182    -0.09400
C1067       C  0.61180216  0.04249774  0.75680843     0.06000
C1068       C  0.62270530  0.03276296  0.77692240    -0.13700
Br1069     Br  0.69621869  0.08906131  0.81158212    -0.05800
Br1070     Br  0.66383896  0.88989338  0.83282317    -0.00200
Br1071     Br  0.72426702  0.02984331  0.72500591     0.00300
Br1072     Br  0.58183462  0.03592321  0.79820907    -0.04100
Br1073     Br  0.69760954  0.05654477  0.85975994     0.00400
Br1074     Br  0.65467626  0.92392037  0.78518195    -0.03400
Br1075     Br  0.74909512  0.00260792  0.77230853    -0.04300
Br1076     Br  0.55521321  0.05479982  0.75016404    -0.00300
C1077       C  0.21498270  0.20166301  0.77791968     0.01100
C1078       C  0.19032853  0.23684580  0.77390942     0.03900
C1079       C  0.20237688  0.26572211  0.75913049    -0.12100
C1080       C  0.23898354  0.25980618  0.74803208     0.23200
C1081       C  0.26268508  0.22377012  0.75113998    -0.12700
C1082       C  0.25091994  0.19490046  0.76618296     0.04600
C1083       C  0.25287241  0.29289869  0.73388112     0.27100
C1084       C  0.23840147  0.29369707  0.71382954    -0.13400
C1085       C  0.24833340  0.32718186  0.70103399     0.05100
C1086       C  0.27393084  0.35996064  0.70801392    -0.09400
C1087       C  0.28670819  0.35981633  0.72857922     0.06000
C1088       C  0.27640637  0.32627167  0.74130755    -0.13700
Br1089     Br  0.31110435  0.21422386  0.73473158    -0.05800
Br1090     Br  0.13886613  0.24561866  0.78786643    -0.00200
Br1091     Br  0.22426079  0.32880319  0.67426791     0.00300
Br1092     Br  0.29451686  0.32561521  0.76918309    -0.04100
Br1093     Br  0.28526030  0.14745360  0.77146377     0.00400
Br1094     Br  0.16867690  0.31391330  0.75394588    -0.03400
Br1095     Br  0.20431757  0.24883026  0.70409205    -0.04300
Br1096     Br  0.31975701  0.40392955  0.73974195    -0.00300
C1097       C  0.24668268  0.42743907  0.48750097     0.01100
C1098       C  0.26069439  0.39348250  0.49890723     0.03900
C1099       C  0.27584503  0.39949982  0.51867920    -0.12100
C1100       C  0.27668898  0.43951842  0.52724187     0.23200
C1101       C  0.26235840  0.47348572  0.51588064    -0.12700
C1102       C  0.24793205  0.46754294  0.49594624     0.04600
C1103       C  0.28960152  0.44520072  0.54871299     0.27100
C1104       C  0.26002626  0.44090007  0.56423996    -0.13400
C1105       C  0.27180937  0.44475526  0.58464597     0.05100
C1106       C  0.31373975  0.45076952  0.58979290    -0.09400
C1107       C  0.34330260  0.45607052  0.57423121     0.06000
C1108       C  0.33109166  0.45390981  0.55371563    -0.13700
Br1109     Br  0.26204625  0.52798393  0.52783781    -0.05800
Br1110     Br  0.25865358  0.33861525  0.48738102    -0.00200
Br1111     Br  0.22988734  0.44368254  0.60552612     0.00300
Br1112     Br  0.37113139  0.46207734  0.53240812    -0.04100
Br1113     Br  0.23137067  0.51448374  0.47992827     0.00400
Br1114     Br  0.29502425  0.35287113  0.53421676    -0.03400
Br1115     Br  0.20333939  0.42861023  0.55743013    -0.04300
Br1116     Br  0.40074641  0.46389738  0.58095846    -0.00300
C1117       C  0.33477916  0.58751923  0.84100758     0.01100
C1118       C  0.34098362  0.61471196  0.82465116     0.03900
C1119       C  0.34586715  0.59873754  0.80492423    -0.12100
C1120       C  0.34383630  0.55564075  0.80153642     0.23200
C1121       C  0.33660922  0.52856538  0.81784733    -0.12700
C1122       C  0.33212618  0.54447217  0.83754668     0.04600
C1123       C  0.34879745  0.53889108  0.78075807     0.27100
C1124       C  0.31468936  0.53805448  0.76757691    -0.13400
C1125       C  0.31980133  0.52476564  0.74745025     0.05100
C1126       C  0.35894066  0.51210403  0.74049081    -0.09400
C1127       C  0.39269375  0.51117347  0.75387515     0.06000
C1128       C  0.38765726  0.52464724  0.77402677    -0.13700
Br1129     Br  0.33388473  0.46962756  0.81318797    -0.05800
Br1130     Br  0.34474790  0.67345906  0.82946507    -0.00200
Br1131     Br  0.27332475  0.52425428  0.72922996     0.00300
Br1132     Br  0.43411068  0.52498205  0.79226010    -0.04100
Br1133     Br  0.32232738  0.50719039  0.85992554     0.00400
Br1134     Br  0.35700365  0.63556951  0.78258670    -0.03400
Br1135     Br  0.26122343  0.55609273  0.77704934    -0.04300
Br1136     Br  0.44605281  0.49314940  0.74429062    -0.00300
C1137       C  0.42156889  0.35611415  0.67002431     0.01100
C1138       C  0.42139145  0.32788692  0.68641995     0.03900
C1139       C  0.45125652  0.29649688  0.68749760    -0.12100
C1140       C  0.48240333  0.29403737  0.67269931     0.23200
C1141       C  0.48343091  0.32257437  0.65659854    -0.12700
C1142       C  0.45251484  0.35291154  0.65494853     0.04600
C1143       C  0.51435288  0.26151704  0.67403947     0.27100
C1144       C  0.54980942  0.26832956  0.68585577    -0.13400
C1145       C  0.58192089  0.23914076  0.68572535     0.05100
C1146       C  0.57870467  0.20317189  0.67368492    -0.09400
C1147       C  0.54283737  0.19608767  0.66215089     0.06000
C1148       C  0.51026574  0.22478600  0.66270434    -0.13700
Br1149     Br  0.52741453  0.31980831  0.63681774    -0.05800
Br1150     Br  0.37894729  0.32957188  0.70688769    -0.00200
Br1151     Br  0.63149057  0.25030790  0.70082468     0.00300
Br1152     Br  0.46004284  0.21412083  0.64791875    -0.04100
Br1153     Br  0.45279148  0.38966929  0.63190145     0.00400
Br1154     Br  0.44899331  0.25577687  0.70888931    -0.03400
Br1155     Br  0.55464974  0.31834117  0.70174469    -0.04300
Br1156     Br  0.53898276  0.14792282  0.64500427    -0.00300
C1157       C  0.08793332  0.50988588  0.46249657     0.01100
C1158       C  0.08282564  0.48628043  0.48038503     0.03900
C1159       C  0.05156346  0.49645016  0.49444959    -0.12100
C1160       C  0.02410123  0.52914155  0.49043606     0.23200
C1161       C  0.02976064  0.55344996  0.47292553    -0.12700
C1162       C  0.06198416  0.54433242  0.45921458     0.04600
C1163       C  0.99145267  0.54008878  0.50547550     0.27100
C1164       C  0.95292748  0.51959840  0.50566128    -0.13400
C1165       C  0.92268187  0.52991427  0.52035213     0.05100
C1166       C  0.93007056  0.56218200  0.53440325    -0.09400
C1167       C  0.96892339  0.58270799  0.53386475     0.06000
C1168       C  0.99958528  0.57095249  0.51988480    -0.13700
Br1169     Br  0.99315471  0.59929135  0.46779892    -0.05800
Br1170     Br  0.11639787  0.43823716  0.48533872    -0.00200
Br1171     Br  0.87276328  0.49754689  0.52210038     0.00300
Br1172     Br  0.05354734  0.59683347  0.52051817    -0.04100
Br1173     Br  0.07163776  0.58011855  0.43628942     0.00400
Br1174     Br  0.04627545  0.46584562  0.51943418    -0.03400
Br1175     Br  0.94203137  0.47717502  0.48579829    -0.04300
Br1176     Br  0.98099140  0.62879232  0.55128232    -0.00300
C1177       C  0.77454741  0.64554851  0.50202051     0.01100
C1178       C  0.76811102  0.60616084  0.49341409     0.03900
C1179       C  0.75236679  0.60248737  0.47364429    -0.12100
C1180       C  0.74092876  0.63815214  0.46278457     0.23200
C1181       C  0.74706652  0.67762352  0.47143469    -0.12700
C1182       C  0.76452614  0.68130131  0.49088734     0.04600
C1183       C  0.72476927  0.63410244  0.44182111     0.27100
C1184       C  0.75270357  0.63416555  0.42547466    -0.13400
C1185       C  0.73815075  0.63007257  0.40555507     0.05100
C1186       C  0.69529587  0.62663491  0.40174066    -0.09400
C1187       C  0.66726481  0.62578543  0.41814380     0.06000
C1188       C  0.68206240  0.62931583  0.43818828    -0.13700
Br1189     Br  0.73057921  0.72644285  0.45678190    -0.05800
Br1190     Br  0.77840751  0.55723497  0.50924061    -0.00200
Br1191     Br  0.77756721  0.62794934  0.38349158     0.00300
Br1192     Br  0.64405887  0.62813264  0.46072849    -0.04100
Br1193     Br  0.77405905  0.73520990  0.50258395     0.00400
Br1194     Br  0.74607795  0.54861718  0.46138975    -0.03400
Br1195     Br  0.81117421  0.63999970  0.43050172    -0.04300
Br1196     Br  0.60872212  0.62200703  0.41314286    -0.00300
C1197       C  0.85672456  0.51361949  0.75273502     0.01100
C1198       C  0.88640943  0.50703050  0.73744822     0.03900
C1199       C  0.88014069  0.52326855  0.71789214    -0.12100
C1200       C  0.84413402  0.54613734  0.71357542     0.23200
C1201       C  0.81422595  0.55231452  0.72882923    -0.12700
C1202       C  0.82043405  0.53596453  0.74833805     0.04600
C1203       C  0.83746934  0.56307671  0.69289915     0.27100
C1204       C  0.85378781  0.60205893  0.68749544    -0.13400
C1205       C  0.84968830  0.61665479  0.66748662     0.05100
C1206       C  0.82935311  0.59233315  0.65285665    -0.09400
C1207       C  0.81062359  0.55473715  0.65860955     0.06000
C1208       C  0.81520474  0.53981373  0.67851437    -0.13700
Br1209     Br  0.76540421  0.58430369  0.72307400    -0.05800
Br1210     Br  0.93659628  0.47771423  0.74367933    -0.00200
Br1211     Br  0.87177061  0.66994417  0.65995297     0.00300
Br1212     Br  0.79270948  0.48660002  0.68593907    -0.04100
Br1213     Br  0.77925532  0.54426938  0.76918550     0.00400
Br1214     Br  0.92141953  0.51541694  0.69711869    -0.03400
Br1215     Br  0.88292500  0.63464476  0.70736213    -0.04300
Br1216     Br  0.77908756  0.52358587  0.63908637    -0.00300
C1217       C  0.48114684  0.54317272  0.63205365     0.01100
C1218       C  0.51539845  0.51669692  0.63433674     0.03900
C1219       C  0.55295744  0.52572706  0.62455305    -0.12100
C1220       C  0.55736202  0.56270089  0.61350524     0.23200
C1221       C  0.52347447  0.58981562  0.61160905    -0.12700
C1222       C  0.48532440  0.57994883  0.62079257     0.04600
C1223       C  0.59894521  0.57558824  0.60629744     0.27100
C1224       C  0.62606490  0.59521030  0.61991529    -0.13400
C1225       C  0.66529754  0.60828861  0.61336685     0.05100
C1226       C  0.67696883  0.60365887  0.59282661    -0.09400
C1227       C  0.65003920  0.58332650  0.57925281     0.06000
C1228       C  0.61144631  0.56849805  0.58612146    -0.13700
Br1229     Br  0.53031401  0.64163733  0.59750298    -0.05800
Br1230     Br  0.51236569  0.47049641  0.65275590    -0.00200
Br1231     Br  0.70178503  0.63461304  0.63260008     0.00300
Br1232     Br  0.57554097  0.53842585  0.56806947    -0.04100
Br1233     Br  0.44016004  0.61854926  0.61960474     0.00400
Br1234     Br  0.59922331  0.48852231  0.62707424    -0.03400
Br1235     Br  0.60863321  0.60555356  0.64749246    -0.04300
Br1236     Br  0.66631489  0.57511305  0.55138925    -0.00300
C1237       C  0.74547685  0.76055543  0.61206289     0.01100
C1238       C  0.77778187  0.78740111  0.61780404     0.03900
C1239       C  0.76870980  0.82516620  0.62747392    -0.12100
C1240       C  0.72731045  0.83657317  0.63095070     0.23200
C1241       C  0.69510793  0.80905661  0.62580830    -0.12700
C1242       C  0.70418531  0.77111482  0.61633388     0.04600
C1243       C  0.71707034  0.87877239  0.63832516     0.27100
C1244       C  0.70894208  0.88581731  0.65895284    -0.13400
C1245       C  0.69312090  0.92427067  0.66538285     0.05100
C1246       C  0.68447075  0.95585256  0.65103444    -0.09400
C1247       C  0.69671753  0.94973676  0.63055887     0.06000
C1248       C  0.71285174  0.91127576  0.62432968    -0.13700
Br1249     Br  0.63843348  0.82420505  0.63105104    -0.05800
Br1250     Br  0.83416979  0.77414891  0.61069180    -0.00200
Br1251     Br  0.68467330  0.93326133  0.69405856     0.00300
Br1252     Br  0.72763152  0.90207006  0.59627871    -0.04100
Br1253     Br  0.66008856  0.73410551  0.60858888     0.00400
Br1254     Br  0.81270024  0.86212630  0.63528091    -0.03400
Br1255     Br  0.71862019  0.84197616  0.67820373    -0.04300
Br1256     Br  0.68971423  0.99215281  0.61026995    -0.00300
C1257       C  0.91423557  0.05696175  0.46457387     0.01100
C1258       C  0.91379283  0.07069630  0.48502077     0.03900
C1259       C  0.94531885  0.05837970  0.49846664    -0.12100
C1260       C  0.97890079  0.03472600  0.49139695     0.23200
C1261       C  0.97878516  0.01973871  0.47139862    -0.12700
C1262       C  0.94584893  0.02923941  0.45834826     0.04600
C1263       C  0.01315510  0.02319261  0.50529551     0.27100
C1264       C  0.04768909  0.04935919  0.50790275    -0.13400
C1265       C  0.08021116  0.03772778  0.52097452     0.05100
C1266       C  0.07842144  0.99973425  0.53149081    -0.09400
C1267       C  0.04410389  0.97319068  0.52819693     0.06000
C1268       C  0.01163105  0.98503545  0.51537808    -0.13700
Br1269     Br  0.02434945  0.98633672  0.46188461    -0.05800
Br1270     Br  0.87244761  0.10851193  0.49487586    -0.00200
Br1271     Br  0.12619634  0.07466313  0.52505128     0.00300
Br1272     Br  0.96457785  0.94886784  0.51145648    -0.04100
Br1273     Br  0.94365194  0.00217556  0.43221179     0.00400
Br1274     Br  0.94280337  0.07368722  0.52673647    -0.03400
Br1275     Br  0.05001068  0.10123147  0.49355885    -0.04300
Br1276     Br  0.04136648  0.91915198  0.54006188    -0.00300
C1277       C  0.17965410  0.97842073  0.64979057     0.01100
C1278       C  0.18903070  0.02002640  0.65448802     0.03900
C1279       C  0.18416941  0.03501516  0.67448356    -0.12100
C1280       C  0.16974872  0.00850772  0.68994539     0.23200
C1281       C  0.16276137  0.96632178  0.68548290    -0.12700
C1282       C  0.16765217  0.95135561  0.66548660     0.04600
C1283       C  0.16007105  0.02506737  0.71063766     0.27100
C1284       C  0.19041067  0.02531413  0.72592915    -0.13400
C1285       C  0.18018812  0.03799050  0.74580220     0.05100
C1286       C  0.13956576  0.05050588  0.75057944    -0.09400
C1287       C  0.10948930  0.05137866  0.73521129     0.06000
C1288       C  0.11971896  0.03881060  0.71530038    -0.13700
Br1289     Br  0.14527523  0.92938625  0.70678700    -0.05800
Br1290     Br  0.20808625  0.05653367  0.63332326    -0.00200
Br1291     Br  0.22170527  0.03767646  0.76671259     0.00300
Br1292     Br  0.07816488  0.03917881  0.69443947    -0.04100
Br1293     Br  0.15622972  0.89414241  0.65934399     0.00400
Br1294     Br  0.19624924  0.09209128  0.68068908    -0.03400
Br1295     Br  0.24568811  0.00711571  0.71971909    -0.04300
Br1296     Br  0.05386740  0.06806452  0.74173864    -0.00300
C1297       C  0.31452971  0.95634776  0.39887142     0.01100
C1298       C  0.27165847  0.95407442  0.40284949     0.03900
C1299       C  0.25696975  0.95222566  0.42292620    -0.12100
C1300       C  0.28491834  0.95280758  0.43922891     0.23200
C1301       C  0.32759226  0.95761051  0.43532650    -0.12700
C1302       C  0.34241415  0.95903467  0.41518355     0.04600
C1303       C  0.26958558  0.94418985  0.46016346     0.27100
C1304       C  0.25223966  0.97585531  0.47217630    -0.13400
C1305       C  0.23634682  0.96674994  0.49164354     0.05100
C1306       C  0.23770537  0.92590873  0.49926219    -0.09400
C1307       C  0.25568348  0.89447664  0.48727216     0.06000
C1308       C  0.27103276  0.90345428  0.46774842    -0.13700
Br1309     Br  0.36570016  0.96097306  0.45764457    -0.05800
Br1310     Br  0.23270395  0.95355291  0.38072874    -0.00200
Br1311     Br  0.21573473  0.01090458  0.50840929     0.00300
Br1312     Br  0.29429867  0.85988031  0.45125918    -0.04100
Br1313     Br  0.40098564  0.96110000  0.40995044     0.00400
Br1314     Br  0.19845668  0.94751513  0.42817043    -0.03400
Br1315     Br  0.25141226  0.03183940  0.46204953    -0.04300
Br1316     Br  0.25996191  0.83897076  0.49777779    -0.00300
C1317       C  0.92970512  0.70194082  0.57643243     0.01100
C1318       C  0.96596256  0.69934905  0.58862927     0.03900
C1319       C  0.99797868  0.72842295  0.58627556    -0.12100
C1320       C  0.99338945  0.76182045  0.57294407     0.23200
C1321       C  0.95742735  0.76549442  0.56121421    -0.12700
C1322       C  0.92586834  0.73552696  0.56268605     0.04600
C1323       C  0.02442809  0.79557496  0.57311466     0.27100
C1324       C  0.01993884  0.82787250  0.58716676    -0.13400
C1325       C  0.04874689  0.86040663  0.58771487     0.05100
C1326       C  0.08355792  0.86029717  0.57441948    -0.09400
C1327       C  0.08774854  0.82727671  0.56023792     0.06000
C1328       C  0.05818031  0.79517777  0.55968033    -0.13700
Br1329     Br  0.95157788  0.81241118  0.54333865    -0.05800
Br1330     Br  0.97452445  0.65564469  0.60825513    -0.00200
Br1331     Br  0.03653668  0.90633813  0.60566544     0.00300
Br1332     Br  0.06342804  0.75023941  0.54051124    -0.04100
Br1333     Br  0.87694934  0.74282210  0.54638543     0.00400
Br1334     Br  0.04906739  0.72265735  0.60114340    -0.03400
Br1335     Br  0.97320931  0.82746347  0.60556444    -0.04300
Br1336     Br  0.13316054  0.82485958  0.54115845    -0.00300
C1337       C  0.33424319  0.95837560  0.58629496     0.01100
C1338       C  0.33781226  0.00194639  0.58580183     0.03900
C1339       C  0.37556006  0.02112362  0.59102018    -0.12100
C1340       C  0.40903418  0.99695500  0.59780051     0.23200
C1341       C  0.40588503  0.95347300  0.59760905    -0.12700
C1342       C  0.36928254  0.93425134  0.59121492     0.04600
C1343       C  0.44609874  0.01612816  0.60723299     0.27100
C1344       C  0.48495667  0.01328044  0.59761555    -0.13400
C1345       C  0.52149591  0.01819732  0.60897156     0.05100
C1346       C  0.51922651  0.02954349  0.62965517    -0.09400
C1347       C  0.48000583  0.03726728  0.63850890     0.06000
C1348       C  0.44371721  0.02951315  0.62750274    -0.13700
Br1349     Br  0.45125194  0.91984277  0.60717353    -0.05800
Br1350     Br  0.29174364  0.03524706  0.57714274    -0.00200
Br1351     Br  0.57383468  0.00454128  0.59664155     0.00300
Br1352     Br  0.39054463  0.03479459  0.64067775    -0.04100
Br1353     Br  0.36796641  0.87448946  0.58971127     0.00400
Br1354     Br  0.38171431  0.08032485  0.58893839    -0.03400
Br1355     Br  0.48762557  0.00036646  0.56909077    -0.04300
Br1356     Br  0.47504680  0.05894110  0.66576426    -0.00300
C1357       C  0.25470670  0.80169489  0.61002594     0.01100
C1358       C  0.28612149  0.79946490  0.62470940     0.03900
C1359       C  0.29683058  0.76089530  0.63315892    -0.12100
C1360       C  0.27302941  0.72538418  0.62874977     0.23200
C1361       C  0.23803126  0.72898129  0.61625318    -0.12700
C1362       C  0.22985928  0.76655421  0.60628544     0.04600
C1363       C  0.28649499  0.68378967  0.63581032     0.27100
C1364       C  0.30551747  0.65650752  0.62198336    -0.13400
C1365       C  0.31815110  0.61695889  0.62826765     0.05100
C1366       C  0.31606111  0.60600513  0.64899565    -0.09400
C1367       C  0.29606141  0.63298519  0.66277961     0.06000
C1368       C  0.28022290  0.67122998  0.65603382    -0.13700
Br1369     Br  0.20190216  0.68201126  0.61256379    -0.05800
Br1370     Br  0.31389886  0.84898135  0.63353379    -0.00200
Br1371     Br  0.33900069  0.57873786  0.60815348     0.00300
Br1372     Br  0.25011578  0.70669685  0.67438200    -0.04100
Br1373     Br  0.18420044  0.76998439  0.58763222     0.00400
Br1374     Br  0.34572312  0.75614772  0.64960641    -0.03400
Br1375     Br  0.31676514  0.67443767  0.59459488    -0.04300
Br1376     Br  0.28898015  0.61705026  0.69073789    -0.00300
loop_ 
_geom_bond_atom_site_label_1 
_geom_bond_atom_site_label_2 
_geom_bond_distance 
_geom_bond_site_symmetry_2 
_ccdc_geom_bond_type 
O1           Ni7   1.928       .  S
O1           C22   1.274       .  A
O2          Ni25   1.924       .  S
O2           C11   1.273       .  A
O3           Ni7   1.876       .  S
O3          Ni25   1.887       .  S
O3          Ni19   1.900       .  S
O3           H26   0.964       .  S
C4           O21   1.273       .  A
C4           O13   1.273       .  A
C4         C1266   1.495       .  S
O5          Ni24   1.932       .  S
O5           C11   1.273       .  A
O6          Ni24   1.910       .  S
O6            C8   1.274       .  A
Ni7          O10   1.928       .  S
Ni7          O12   1.898       .  S
C8           O18   1.286       .  A
C8         C1326   1.498       .  S
O9          Ni25   1.938       .  S
O9           C15   1.282       .  A
O10          C15   1.281       .  A
C11        C1277   1.488       .  S
O12          C14   1.267       .  A
O13         Ni24   1.948       .  S
C14          O20   1.277       .  A
C14        C1337   1.484       .  S
C15        C1357   1.482       .  S
H16          O17   0.966       .  S
O17         Ni25   1.946       .  S
O17         Ni19   1.918       .  S
O17         Ni24   1.908       .  S
O18         Ni19   1.964       .  S
Ni19         O23   1.928       .  S
Ni19         O21   1.925       .  S
O20         Ni25   1.938       .  S
C22          O23   1.280       .  A
C22        C1306   1.488       .  S
O27         Ni33   1.919       .  S
O27          C48   1.272       .  A
O28         Ni51   1.909       .  S
O28          C37   1.267       .  A
O29         Ni33   1.889       .  S
O29         Ni51   1.879       .  S
O29         Ni45   1.897       .  S
O29          H52   0.965       .  S
C30          O47   1.273       .  A
C30          O39   1.273       .  A
C30        C1166   1.499       .  S
O31         Ni50   1.929       .  S
O31          C37   1.271       .  A
O32         Ni50   1.907       .  S
O32          C34   1.271       .  A
Ni33         O36   1.916       .  S
Ni33         O38   1.911       .  S
C34          O44   1.285       .  A
C34        C1317   1.498       .  S
O35         Ni51   1.929       .  S
O35          C41   1.280       .  A
O36          C41   1.277       .  A
C37        C1206   1.477       .  S
O38          C40   1.268       .  A
O39         Ni50   1.942       .  S
C40          O46   1.271       .  A
C40        C1226   1.480       .  S
C41        C1237   1.470       .  S
H42          O43   0.966       .  S
O43         Ni51   1.942       .  S
O43         Ni45   1.920       .  S
O43         Ni50   1.907       .  S
O44         Ni45   1.965       .  S
Ni45         O49   1.922       .  S
Ni45         O47   1.922       .  S
O46         Ni51   1.924       .  S
C48          O49   1.277       .  A
C48        C1177   1.474       .  S
O53         Ni59   1.926       .  S
O53          C74   1.273       .  A
O54         Ni77   1.909       .  S
O54          C63   1.270       .  A
O55         Ni59   1.911       .  S
O55         Ni77   1.911       .  S
O55         Ni71   1.940       .  S
O55          H78   0.966       .  S
C56          O73   1.283       .  A
C56          O65   1.277       .  A
C56        C1217   1.475       .  S
O57         Ni76   1.926       .  S
O57          C63   1.273       .  A
O58         Ni76   1.912       .  S
O58          C60   1.269       .  A
Ni59         O62   1.934       .  S
Ni59         O64   1.902       .  S
C60          O70   1.271       .  A
C60        C1366   1.487       .  S
O61         Ni77   1.924       .  S
O61          C67   1.271       .  A
O62          C67   1.271       .  A
C63        C1126   1.469       .  S
O64          C66   1.274       .  A
O65         Ni76   1.918       .  S
C66          O72   1.283       .  A
C66        C1137   1.480       .  S
C67        C1086   1.499       .  S
H68          O69   0.966       .  S
O69         Ni77   1.895       .  S
O69         Ni71   1.886       .  S
O69         Ni76   1.897       .  S
O70         Ni71   1.927       .  S
Ni71         O75   1.913       .  S
Ni71         O73   1.937       .  S
O72         Ni77   1.956       .  S
C74          O75   1.270       .  A
C74        C1106   1.485       .  S
O79         Ni85   1.932       .  S
O79         C100   1.273       .  A
O80        Ni103   1.909       .  S
O80          C89   1.270       .  A
O81         Ni85   1.913       .  S
O81        Ni103   1.919       .  S
O81         Ni97   1.937       .  S
O81         H104   0.966       .  S
C82          O99   1.280       .  A
C82          O91   1.279       .  A
C82        C1346   1.488       .  S
O83        Ni102   1.942       .  S
O83          C89   1.276       .  A
O84        Ni102   1.907   1_565  S
O84          C86   1.268       .  A
Ni85         O88   1.934       .  S
Ni85         O90   1.906       .  S
C86          O96   1.274   1_565  A
C86        C1246   1.497       .  S
O87        Ni103   1.918       .  S
O87          C93   1.270       .  A
O88          C93   1.272       .  A
C89        C1066   1.481       .  S
O90          C92   1.274       .  A
O91        Ni102   1.923       .  S
C92          O98   1.282       .  A
C92        C1146   1.472       .  S
C93        C1017   1.489       .  S
H94          O95   0.965       .  S
O95        Ni103   1.893       .  S
O95         Ni97   1.892       .  S
O95        Ni102   1.898       .  S
O96         Ni97   1.936       .  S
Ni97        O101   1.922       .  S
Ni97         O99   1.929       .  S
O98        Ni103   1.957       .  S
C100        O101   1.272       .  A
C100       C1046   1.490       .  S
O105       Ni111   1.935       .  S
O105        C126   1.274       .  A
O106       Ni129   1.918       .  S
O106        C115   1.274       .  A
O107       Ni111   1.912       .  S
O107       Ni129   1.912       .  S
O107       Ni123   1.938       .  S
O107        H130   0.966       .  S
C108        O125   1.283       .  A
C108        O117   1.278       .  A
C108        C997   1.495       .  S
O109       Ni128   1.930       .  S
O109        C115   1.273       .  A
O110       Ni128   1.899       .  S
O110        C112   1.266       .  A
Ni111       O114   1.936       .  S
Ni111       O116   1.914       .  S
C112        O122   1.272       .  A
C112        C977   1.492       .  S
O113       Ni129   1.915       .  S
O113        C119   1.270       .  A
O114        C119   1.272       .  A
C115        C937   1.480       .  S
O116        C118   1.278       .  A
O117       Ni128   1.916       .  S
C118        O124   1.287       .  A
C118        C966   1.482       .  S
C119        C917   1.486   1_565  S
H120        O121   0.964       .  S
O121       Ni129   1.894       .  S
O121       Ni123   1.885       .  S
O121       Ni128   1.895       .  S
O122       Ni123   1.932       .  S
Ni123       O127   1.913       .  S
Ni123       O125   1.939       .  S
O124       Ni129   1.968       .  S
C126        O127   1.270       .  A
C126       C1057   1.484       .  S
O131       Ni137   1.915       .  S
O131        C152   1.271       .  A
O132       Ni155   1.907       .  S
O132        C141   1.271       .  A
O133       Ni137   1.912       .  S
O133       Ni155   1.904       .  S
O133       Ni149   1.943       .  S
O133        H156   0.966       .  S
C134        O151   1.286       .  A
C134        O143   1.279       .  A
C134        C897   1.482       .  S
O135       Ni154   1.931       .  S
O135        C141   1.273       .  A
O136       Ni154   1.908       .  S
O136        C138   1.267       .  A
Ni137       O140   1.928       .  S
Ni137       O142   1.895       .  S
C138        O148   1.274       .  A
C138        C886   1.486       .  S
O139       Ni155   1.922       .  S
O139        C145   1.268       .  A
O140        C145   1.268       .  A
C141        C857   1.473       .  S
O142        C144   1.273       .  A
O143       Ni154   1.920       .  S
C144        O150   1.289       .  A
C144        C957   1.497       .  S
C145        C837   1.496       .  S
H146        O147   0.966       .  S
O147       Ni155   1.896       .  S
O147       Ni149   1.886       .  S
O147       Ni154   1.896       .  S
O148       Ni149   1.936       .  S
Ni149       O153   1.913       .  S
Ni149       O151   1.942       .  S
O150       Ni155   1.973       .  S
C152        O153   1.272       .  A
C152       C1117   1.471       .  S
O157       Ni163   1.941       .  S
O157        C178   1.278       .  A
O158       Ni181   1.909       .  S
O158        C167   1.268       .  A
O159       Ni163   1.886       .  S
O159       Ni181   1.879       .  S
O159       Ni175   1.887       .  S
O159        H182   0.962       .  S
C160        O177   1.267       .  A
C160        O169   1.273       .  A
C160       C1077   1.488       .  S
O161       Ni180   1.925       .  S
O161        C167   1.271       .  A
O162       Ni180   1.901       .  S
O162        C164   1.271       .  A
Ni163       O166   1.924       .  S
Ni163       O168   1.912   1_545  S
C164        O174   1.289       .  A
C164        C817   1.496       .  S
O165       Ni181   1.923       .  S
O165        C171   1.279       .  A
O166        C171   1.280       .  A
C167        C797   1.475       .  S
O168        C170   1.270       .  A
O169       Ni180   1.948       .  S
C170        O176   1.275   1_565  A
C170        C906   1.493       .  S
C171        C986   1.470       .  S
H172        O173   0.966       .  S
O173       Ni181   1.941       .  S
O173       Ni175   1.914       .  S
O173       Ni180   1.911       .  S
O174       Ni175   1.975       .  S
Ni175       O179   1.914       .  S
Ni175       O177   1.912       .  S
O176       Ni181   1.934       .  S
C178        O179   1.274       .  A
C178       C1286   1.484       .  S
O183       Ni189   1.921       .  S
O183        C204   1.273       .  A
O184       Ni207   1.921       .  S
O184        C193   1.273       .  A
O185       Ni189   1.872       .  S
O185       Ni207   1.880       .  S
O185       Ni201   1.895       .  S
O185        H208   0.964       .  S
C186        O203   1.273       .  A
C186        O195   1.271       .  A
C186       C1026   1.499       .  S
O187       Ni206   1.919       .  S
O187        C193   1.271       .  A
O188       Ni206   1.911       .  S
O188        C190   1.273       .  A
Ni189       O192   1.916       .  S
Ni189       O194   1.901       .  S
C190        O200   1.284       .  A
C190        C826   1.502       .  S
O191       Ni207   1.944       .  S
O191        C197   1.285       .  A
O192        C197   1.280       .  A
C193        C786   1.483       .  S
O194        C196   1.267       .  A
O195       Ni206   1.938       .  S
C196        O202   1.280       .  A
C196       C1006   1.493       .  S
C197        C877   1.481       .  S
H198        O199   0.966       .  S
O199       Ni207   1.950       .  S
O199       Ni201   1.919       .  S
O199       Ni206   1.909       .  S
O200       Ni201   1.965       .  S
Ni201       O205   1.918       .  S
Ni201       O203   1.925       .  S
O202       Ni207   1.950       .  S
C204        O205   1.276       .  A
C204       C1197   1.475       .  S
O209       Ni215   1.941       .  S
O209        C230   1.277       .  A
O210       Ni233   1.907       .  S
O210        C219   1.268       .  A
O211       Ni215   1.887       .  S
O211       Ni233   1.881       .  S
O211       Ni227   1.891       .  S
O211        H234   0.964       .  S
C212        O229   1.267       .  A
C212        O221   1.274       .  A
C212        C846   1.487       .  S
O213       Ni232   1.931       .  S
O213        C219   1.273       .  A
O214       Ni232   1.905       .  S
O214        C216   1.272       .  A
Ni215       O218   1.925       .  S
Ni215       O220   1.905       .  S
C216        O226   1.287       .  A
C216        C717   1.497       .  S
O217       Ni233   1.932       .  S
O217        C223   1.281       .  A
O218        C223   1.280       .  A
C219        C697   1.476       .  S
O220        C222   1.268       .  A
O221       Ni232   1.952       .  S
C222        O228   1.272       .  A
C222        C746   1.485       .  S
C223        C757   1.475       .  S
H224        O225   0.966       .  S
O225       Ni233   1.940       .  S
O225       Ni227   1.911       .  S
O225       Ni232   1.908       .  S
O226       Ni227   1.970       .  S
Ni227       O231   1.908       .  S
Ni227       O229   1.914       .  S
O228       Ni233   1.929       .  S
C230        O231   1.273       .  A
C230        C777   1.480       .  S
O235       Ni241   1.935       .  S
O235        C256   1.274       .  A
O236       Ni259   1.917       .  S
O236        C245   1.277       .  A
O237       Ni241   1.905       .  S
O237       Ni259   1.912       .  S
O237       Ni253   1.947       .  S
O237        H260   0.966       .  S
C238        O255   1.282       .  A
C238        O247   1.278       .  A
C238        C737   1.472       .  S
O239       Ni258   1.921       .  S
O239        C245   1.273       .  A
O240       Ni258   1.911       .  S
O240        C242   1.268       .  A
Ni241       O244   1.948       .  S
Ni241       O246   1.911       .  S
C242        O252   1.268       .  A
C242        C686   1.476       .  S
O243       Ni259   1.923       .  S
O243        C249   1.270       .  A
O244        C249   1.273       .  A
C245        C637   1.473       .  S
O246        C248   1.277       .  A
O247       Ni258   1.913       .  S
C248        O254   1.290       .  A
C248        C657   1.498       .  S
C249        C626   1.494       .  S
H250        O251   0.963       .  S
O251       Ni259   1.890       .  S
O251       Ni253   1.875       .  S
O251       Ni258   1.886       .  S
O252       Ni253   1.919       .  S
Ni253       O257   1.902       .  S
Ni253       O255   1.931       .  S
O254       Ni259   1.975       .  S
C256        O257   1.266       .  A
C256        C866   1.482       .  S
O261       Ni267   1.923       .  S
O261        C282   1.275       .  A
O262       Ni285   1.909       .  S
O262        C271   1.268       .  A
O263       Ni267   1.878       .  S
O263       Ni285   1.879       .  S
O263       Ni279   1.891       .  S
O263        H286   0.964       .  S
C264        O281   1.270       .  A
C264        O273   1.269       .  A
C264        C926   1.496       .  S
O265       Ni284   1.918       .  S
O265        C271   1.269       .  A
O266       Ni284   1.911       .  S
O266        C268   1.275       .  A
Ni267       O270   1.923       .  S
Ni267       O272   1.905       .  S
C268        O278   1.285       .  A
C268        C726   1.502       .  S
O269       Ni285   1.930       .  S
O269        C275   1.280       .  A
O270        C275   1.280       .  A
C271        C586   1.472       .  S
O272        C274   1.268       .  A
O273       Ni284   1.933       .  S
C274        O280   1.273       .  A
C274        C606   1.483       .  S
C275        C677   1.476       .  S
H276        O277   0.966       .  S
O277       Ni285   1.949       .  S
O277       Ni279   1.915       .  S
O277       Ni284   1.906       .  S
O278       Ni279   1.962       .  S
Ni279       O283   1.916       .  S
Ni279       O281   1.917       .  S
O280       Ni285   1.929       .  S
C282        O283   1.276       .  A
C282        C806   1.481   1_554  S
O287       Ni293   1.925       .  S
O287        C308   1.272       .  A
O288       Ni311   1.910       .  S
O288        C297   1.272   1_565  A
O289       Ni293   1.911       .  S
O289       Ni311   1.910       .  S
O289       Ni305   1.945       .  S
O289        H312   0.966       .  S
C290        O307   1.281       .  A
C290        O299   1.279       .  A
C290        C597   1.495       .  S
O291       Ni310   1.930       .  S
O291        C297   1.275       .  A
O292       Ni310   1.902       .  S
O292        C294   1.267       .  A
Ni293       O296   1.948       .  S
Ni293       O298   1.909       .  S
C294        O304   1.274       .  A
C294        C766   1.495       .  S
O295       Ni311   1.914       .  S
O295        C301   1.266       .  A
O296        C301   1.272       .  A
C297        C557   1.473       .  S
O298        C300   1.274       .  A
O299       Ni310   1.922       .  S
C300        O306   1.288       .  A
C300        C666   1.505       .  S
C301        C537   1.487       .  S
H302        O303   0.963       .  S
O303       Ni311   1.886       .  S
O303       Ni305   1.877       .  S
O303       Ni310   1.888   1_565  S
O304       Ni305   1.936   1_545  S
Ni305       O309   1.913       .  S
Ni305       O307   1.928   1_565  S
O306       Ni311   1.968       .  S
C308        O309   1.269       .  A
C308        C946   1.478       .  S
O313       Ni319   1.922       .  S
O313        C334   1.271       .  A
O314       Ni337   1.916       .  S
O314        C323   1.275       .  A
O315       Ni319   1.913       .  S
O315       Ni337   1.911       .  S
O315       Ni331   1.942       .  S
O315        H338   0.966       .  S
C316        O333   1.280       .  A
C316        O325   1.280       .  A
C316        C506   1.482       .  S
O317       Ni336   1.937       .  S
O317        C323   1.276       .  A
O318       Ni336   1.911       .  S
O318        C320   1.270       .  A
Ni319       O322   1.930       .  S
Ni319       O324   1.902       .  S
C320        O330   1.276       .  A
C320        C526   1.492       .  S
O321       Ni337   1.929       .  S
O321        C327   1.272       .  A
O322        C327   1.269       .  A
C323       C1037   1.485       .  S
O324        C326   1.275       .  A
O325       Ni336   1.927       .  S
C326        O332   1.285       .  A
C326        C477   1.479       .  S
C327       C1257   1.499       .  S
H328        O329   0.965       .  S
O329       Ni337   1.900       .  S
O329       Ni331   1.890       .  S
O329       Ni336   1.889       .  S
O330       Ni331   1.937       .  S
Ni331       O335   1.911       .  S
Ni331       O333   1.936       .  S
O332       Ni337   1.957       .  S
C334        O335   1.270       .  A
C334        C566   1.473       .  S
O339       Ni345   1.934       .  S
O339        C360   1.274       .  A
O340       Ni363   1.914       .  S
O340        C349   1.272       .  A
O341       Ni345   1.913       .  S
O341       Ni363   1.916       .  S
O341       Ni357   1.939       .  S
O341        H364   0.966       .  S
C342        O359   1.281       .  A
C342        O351   1.279       .  A
C342        C466   1.485       .  S
O343       Ni362   1.929       .  S
O343        C349   1.272       .  A
O344       Ni362   1.902       .  S
O344        C346   1.267       .  A
Ni345       O348   1.934       .  S
Ni345       O350   1.909       .  S
C346        O356   1.271       .  A
C346        C446   1.470       .  S
O347       Ni363   1.917       .  S
O347        C353   1.270       .  A
O348        C353   1.271       .  A
C349       C1097   1.477       .  S
O350        C352   1.276       .  A
O351       Ni362   1.925       .  S
C352        O358   1.284       .  A
C352        C486   1.481       .  S
C353       C1157   1.488       .  S
H354        O355   0.971       .  S
O355       Ni363   1.895       .  S
O355       Ni357   1.885       .  S
O355       Ni362   1.895       .  S
O356       Ni357   1.922       .  S
Ni357       O361   1.907       .  S
Ni357       O359   1.936       .  S
O358       Ni363   1.964       .  S
C360        O361   1.268       .  A
C360        C646   1.483       .  S
O365       Ni371   1.938       .  S
O365        C386   1.275       .  A
O366       Ni389   1.921       .  S
O366        C375   1.273       .  A
O367       Ni371   1.895       .  S
O367       Ni389   1.891       .  S
O367       Ni383   1.889       .  S
O367        H390   0.966       .  S
C368        O385   1.267       .  A
C368        O377   1.267       .  A
C368        C546   1.490       .  S
O369       Ni388   1.912       .  S
O369        C375   1.270       .  A
O370       Ni388   1.895       .  S
O370        C372   1.273       .  A
Ni371       O374   1.923       .  S
Ni371       O376   1.914       .  S
C372        O382   1.284       .  A
C372        C417   1.486       .  S
O373       Ni389   1.933       .  S
O373        C379   1.283       .  A
O374        C379   1.279       .  A
C375       C1186   1.481       .  S
O376        C378   1.270       .  A
O377       Ni388   1.920       .  S
C378        O384   1.274       .  A
C378        C497   1.493       .  S
C379        C437   1.475       .  S
H380        O381   0.966       .  S
O381       Ni389   1.940       .  S
O381       Ni383   1.912       .  S
O381       Ni388   1.914       .  S
O382       Ni383   1.959       .  S
Ni383       O387   1.907       .  S
Ni383       O385   1.918       .  S
O384       Ni389   1.938       .  S
C386        O387   1.269       .  A
C386        C706   1.478       .  S
O391       Ni397   1.932       .  S
O391        C412   1.273       .  A
O392       Ni415   1.912       .  S
O392        C401   1.271       .  A
O393       Ni397   1.893   1_565  S
O393       Ni415   1.886       .  S
O393       Ni409   1.902       .  S
O393        H416   0.960       .  S
C394        O411   1.272       .  A
C394        O403   1.272       .  A
C394        C617   1.503       .  S
O395       Ni414   1.928       .  S
O395        C401   1.274       .  A
O396       Ni414   1.906       .  S
O396        C398   1.275       .  A
Ni397       O400   1.921       .  S
Ni397       O402   1.903       .  S
C398        O408   1.283       .  A
C398        C426   1.472       .  S
O399       Ni415   1.951   1_545  S
O399        C405   1.286       .  A
O400        C405   1.279       .  A
C401       C1297   1.483       .  S
O402        C404   1.267       .  A
O403       Ni414   1.939       .  S
C404        O410   1.275       .  A
C404        C457   1.494       .  S
C405        C517   1.504       .  S
H406        O407   0.967       .  S
O407       Ni415   1.946       .  S
O407       Ni409   1.909       .  S
O407       Ni414   1.911       .  S
O408       Ni409   1.957       .  S
Ni409       O413   1.902       .  S
Ni409       O411   1.929       .  S
O410       Ni415   1.941   1_545  S
C412        O413   1.270   1_545  A
C412        C577   1.472       .  S
C417        C418   1.418       .  A
C417        C422   1.419       .  A
C418        C419   1.405       .  A
C418       Br430   1.935       .  S
C419        C420   1.407       .  A
C419       Br434   1.933       .  S
C420        C423   1.482       .  S
C420        C421   1.406       .  A
C421        C422   1.408       .  A
C421       Br429   1.932       .  S
C422       Br433   1.932       .  S
C423        C424   1.407       .  A
C423        C428   1.410       .  A
C424        C425   1.405       .  A
C424       Br435   1.931       .  S
C425        C426   1.411       .  A
C425       Br431   1.926       .  S
C426        C427   1.408       .  A
C427        C428   1.405       .  A
C427       Br436   1.928       .  S
C428       Br432   1.929       .  S
C437        C438   1.407       .  A
C437        C442   1.413       .  A
C438        C439   1.406       .  A
C438       Br450   1.924       .  S
C439        C440   1.409       .  A
C439       Br454   1.930       .  S
C440        C443   1.482       .  S
C440        C441   1.407       .  A
C441        C442   1.408       .  A
C441       Br449   1.930       .  S
C442       Br453   1.928       .  S
C443        C444   1.409       .  A
C443        C448   1.409       .  A
C444        C445   1.403       .  A
C444       Br455   1.931       .  S
C445        C446   1.409       .  A
C445       Br451   1.932       .  S
C446        C447   1.410       .  A
C447        C448   1.408       .  A
C447       Br456   1.930       .  S
C448       Br452   1.927       .  S
C457        C458   1.416       .  A
C457        C462   1.419       .  A
C458        C459   1.411       .  A
C458       Br470   1.929       .  S
C459        C460   1.410       .  A
C459       Br474   1.932       .  S
C460        C463   1.491       .  S
C460        C461   1.407       .  A
C461        C462   1.410       .  A
C461       Br469   1.929       .  S
C462       Br473   1.932       .  S
C463        C464   1.409       .  A
C463        C468   1.410       .  A
C464        C465   1.411       .  A
C464       Br475   1.929       .  S
C465        C466   1.414       .  A
C465       Br471   1.928       .  S
C466        C467   1.412       .  A
C467        C468   1.409       .  A
C467       Br476   1.930       .  S
C468       Br472   1.930       .  S
C477        C478   1.412       .  A
C477        C482   1.414       .  A
C478        C479   1.404       .  A
C478       Br490   1.931       .  S
C479        C480   1.408       .  A
C479       Br494   1.931   1_655  S
C480        C483   1.483   1_655  S
C480        C481   1.410       .  A
C481        C482   1.407       .  A
C481       Br489   1.932       .  S
C482       Br493   1.931       .  S
C483        C484   1.408       .  A
C483        C488   1.408       .  A
C484        C485   1.407       .  A
C484       Br495   1.931   1_455  S
C485        C486   1.414       .  A
C485       Br491   1.930       .  S
C486        C487   1.412       .  A
C487        C488   1.405       .  A
C487       Br496   1.919       .  S
C488       Br492   1.934       .  S
C497        C498   1.414       .  A
C497        C502   1.415       .  A
C498        C499   1.411       .  A
C498       Br510   1.930       .  S
C499        C500   1.411       .  A
C499       Br514   1.931       .  S
C500        C503   1.493       .  S
C500        C501   1.407       .  A
C501        C502   1.411       .  A
C501       Br509   1.930       .  S
C502       Br513   1.922       .  S
C503        C504   1.409       .  A
C503        C508   1.413       .  A
C504        C505   1.408       .  A
C504       Br515   1.929       .  S
C505        C506   1.411       .  A
C505       Br511   1.929       .  S
C506        C507   1.408       .  A
C507        C508   1.411       .  A
C507       Br516   1.927       .  S
C508       Br512   1.928       .  S
C517        C518   1.418       .  A
C517        C522   1.423       .  A
C518        C519   1.415       .  A
C518       Br530   1.924       .  S
C519        C520   1.410       .  A
C519       Br534   1.930       .  S
C520        C523   1.497       .  S
C520        C521   1.408       .  A
C521        C522   1.411       .  A
C521       Br529   1.933       .  S
C522       Br533   1.935       .  S
C523        C524   1.410       .  A
C523        C528   1.412       .  A
C524        C525   1.410       .  A
C524       Br535   1.933       .  S
C525        C526   1.418       .  A
C525       Br531   1.933       .  S
C526        C527   1.414       .  A
C527        C528   1.414       .  A
C527       Br536   1.930       .  S
C528       Br532   1.928       .  S
C537        C538   1.413       .  A
C537        C542   1.416       .  A
C538        C539   1.414       .  A
C538       Br550   1.927       .  S
C539        C540   1.410       .  A
C539       Br554   1.928       .  S
C540        C543   1.480       .  S
C540        C541   1.401       .  A
C541        C542   1.400       .  A
C541       Br549   1.938       .  S
C542       Br553   1.915       .  S
C543        C544   1.405       .  A
C543        C548   1.407       .  A
C544        C545   1.405       .  A
C544       Br555   1.931       .  S
C545        C546   1.419       .  A
C545       Br551   1.935       .  S
C546        C547   1.418       .  A
C547        C548   1.408       .  A
C547       Br556   1.924       .  S
C548       Br552   1.933       .  S
C557        C558   1.408       .  A
C557        C562   1.410       .  A
C558        C559   1.409       .  A
C558       Br570   1.928   1_545  S
C559        C560   1.411       .  A
C559       Br574   1.928       .  S
C560        C563   1.484       .  S
C560        C561   1.408       .  A
C561        C562   1.405       .  A
C561       Br569   1.929       .  S
C562       Br573   1.929       .  S
C563        C564   1.408       .  A
C563        C568   1.411       .  A
C564        C565   1.407       .  A
C564       Br575   1.929   1_545  S
C565        C566   1.410       .  A
C565       Br571   1.930       .  S
C566        C567   1.407       .  A
C567        C568   1.408       .  A
C567       Br576   1.927       .  S
C568       Br572   1.929       .  S
C577        C578   1.405       .  A
C577        C582   1.410       .  A
C578        C579   1.406       .  A
C578       Br590   1.929       .  S
C579        C580   1.412       .  A
C579       Br594   1.930       .  S
C580        C583   1.485       .  S
C580        C581   1.410       .  A
C581        C582   1.409       .  A
C581       Br589   1.930       .  S
C582       Br593   1.929       .  S
C583        C584   1.411       .  A
C583        C588   1.410       .  A
C584        C585   1.407       .  A
C584       Br595   1.929       .  S
C585        C586   1.407       .  A
C585       Br591   1.930       .  S
C586        C587   1.409       .  A
C587        C588   1.407       .  A
C587       Br596   1.929       .  S
C588       Br592   1.930   1_545  S
C597        C598   1.420       .  A
C597        C602   1.424   1_655  A
C598        C599   1.411   1_655  A
C598       Br610   1.930       .  S
C599        C600   1.408       .  A
C599       Br614   1.931       .  S
C600        C603   1.485       .  S
C600        C601   1.404       .  A
C601        C602   1.405       .  A
C601       Br609   1.935       .  S
C602       Br613   1.938       .  S
C603        C604   1.410       .  A
C603        C608   1.407       .  A
C604        C605   1.411       .  A
C604       Br615   1.929   1_545  S
C605        C606   1.414       .  A
C605       Br611   1.929       .  S
C606        C607   1.417       .  A
C607        C608   1.405       .  A
C607       Br616   1.934       .  S
C608       Br612   1.934       .  S
C617        C618   1.420       .  A
C617        C622   1.421       .  A
C618        C619   1.411       .  A
C618       Br630   1.933       .  S
C619        C620   1.407       .  A
C619       Br634   1.931       .  S
C620        C623   1.495       .  S
C620        C621   1.407       .  A
C621        C622   1.414       .  A
C621       Br629   1.931       .  S
C622       Br633   1.924       .  S
C623        C624   1.412       .  A
C623        C628   1.406       .  A
C624        C625   1.416       .  A
C624       Br635   1.927       .  S
C625        C626   1.413       .  A
C625       Br631   1.926       .  S
C626        C627   1.416       .  A
C627        C628   1.408       .  A
C627       Br636   1.922       .  S
C628       Br632   1.933       .  S
C637        C638   1.408       .  A
C637        C642   1.409       .  A
C638        C639   1.408       .  A
C638       Br650   1.929       .  S
C639        C640   1.411       .  A
C639       Br654   1.929       .  S
C640        C643   1.488       .  S
C640        C641   1.410       .  A
C641        C642   1.409       .  A
C641       Br649   1.928       .  S
C642       Br653   1.929       .  S
C643        C644   1.407       .  A
C643        C648   1.411       .  A
C644        C645   1.407       .  A
C644       Br655   1.931       .  S
C645        C646   1.413       .  A
C645       Br651   1.930       .  S
C646        C647   1.411       .  A
C647        C648   1.412       .  A
C647       Br656   1.928       .  S
C648       Br652   1.929       .  S
C657        C658   1.423       .  A
C657        C662   1.419       .  A
C658        C659   1.409       .  A
C658       Br670   1.937       .  S
C659        C660   1.406       .  A
C659       Br674   1.934       .  S
C660        C663   1.491   1_455  S
C660        C661   1.409       .  A
C661        C662   1.412       .  A
C661       Br669   1.932   1_455  S
C662       Br673   1.929       .  S
C663        C664   1.406       .  A
C663        C668   1.405       .  A
C664        C665   1.410       .  A
C664       Br675   1.933   1_655  S
C665        C666   1.423       .  A
C665       Br671   1.932       .  S
C666        C667   1.427       .  A
C667        C668   1.410       .  A
C667       Br676   1.937       .  S
C668       Br672   1.934       .  S
C677        C678   1.408       .  A
C677        C682   1.411       .  A
C678        C679   1.409       .  A
C678       Br690   1.928       .  S
C679        C680   1.412       .  A
C679       Br694   1.929       .  S
C680        C683   1.486       .  S
C680        C681   1.409       .  A
C681        C682   1.406       .  A
C681       Br689   1.930       .  S
C682       Br693   1.931       .  S
C683        C684   1.410       .  A
C683        C688   1.410       .  A
C684        C685   1.407       .  A
C684       Br695   1.932       .  S
C685        C686   1.413       .  A
C685       Br691   1.932       .  S
C686        C687   1.408       .  A
C687        C688   1.409       .  A
C687       Br696   1.928       .  S
C688       Br692   1.928       .  S
C697        C698   1.408       .  A
C697        C702   1.409       .  A
C698        C699   1.408       .  A
C698       Br710   1.929       .  S
C699        C700   1.411       .  A
C699       Br714   1.929       .  S
C700        C703   1.488       .  S
C700        C701   1.410       .  A
C701        C702   1.409       .  A
C701       Br709   1.929       .  S
C702       Br713   1.929       .  S
C703        C704   1.412       .  A
C703        C708   1.408       .  A
C704        C705   1.410       .  A
C704       Br715   1.928       .  S
C705        C706   1.408       .  A
C705       Br711   1.929       .  S
C706        C707   1.410       .  A
C707        C708   1.407       .  A
C707       Br716   1.925       .  S
C708       Br712   1.930       .  S
C717        C718   1.426       .  A
C717        C722   1.420       .  A
C718        C719   1.406       .  A
C718       Br730   1.937       .  S
C719        C720   1.403       .  A
C719       Br734   1.936       .  S
C720        C723   1.483       .  S
C720        C721   1.406       .  A
C721        C722   1.410       .  A
C721       Br729   1.931       .  S
C722       Br733   1.931       .  S
C723        C724   1.403       .  A
C723        C728   1.403       .  A
C724        C725   1.407       .  A
C724       Br735   1.936       .  S
C725        C726   1.429       .  A
C725       Br731   1.939       .  S
C726        C727   1.426       .  A
C727        C728   1.409       .  A
C727       Br736   1.935       .  S
C728       Br732   1.933       .  S
C737        C738   1.412   1_455  A
C737        C742   1.411       .  A
C738        C739   1.407       .  A
C738       Br750   1.932   1_655  S
C739        C740   1.408       .  A
C739       Br754   1.929       .  S
C740        C743   1.482       .  S
C740        C741   1.409       .  A
C741        C742   1.405   1_655  A
C741       Br749   1.931       .  S
C742       Br753   1.932       .  S
C743        C744   1.408       .  A
C743        C748   1.405       .  A
C744        C745   1.407       .  A
C744       Br755   1.933       .  S
C745        C746   1.417       .  A
C745       Br751   1.932       .  S
C746        C747   1.416       .  A
C747        C748   1.407       .  A
C747       Br756   1.932       .  S
C748       Br752   1.929       .  S
C757        C758   1.409       .  A
C757        C762   1.410       .  A
C758        C759   1.409       .  A
C758       Br770   1.930       .  S
C759        C760   1.411       .  A
C759       Br774   1.929       .  S
C760        C763   1.487       .  S
C760        C761   1.409       .  A
C761        C762   1.408       .  A
C761       Br769   1.929       .  S
C762       Br773   1.931       .  S
C763        C764   1.407       .  A
C763        C768   1.406       .  A
C764        C765   1.407       .  A
C764       Br775   1.935       .  S
C765        C766   1.419       .  A
C765       Br771   1.931       .  S
C766        C767   1.421       .  A
C767        C768   1.412       .  A
C767       Br776   1.932       .  S
C768       Br772   1.929       .  S
C777        C778   1.412   1_554  A
C777        C782   1.407   1_554  A
C778        C779   1.411       .  A
C778       Br790   1.928   1_556  S
C779        C780   1.410       .  A
C779       Br794   1.929       .  S
C780        C783   1.492       .  S
C780        C781   1.412       .  A
C781        C782   1.410       .  A
C781       Br789   1.928       .  S
C782       Br793   1.928       .  S
C783        C784   1.408       .  A
C783        C788   1.412       .  A
C784        C785   1.409       .  A
C784       Br795   1.930       .  S
C785        C786   1.414       .  A
C785       Br791   1.931       .  S
C786        C787   1.410       .  A
C787        C788   1.412       .  A
C787       Br796   1.929       .  S
C788       Br792   1.928       .  S
C797        C798   1.409       .  A
C797        C802   1.409       .  A
C798        C799   1.408       .  A
C798       Br810   1.930       .  S
C799        C800   1.411       .  A
C799       Br814   1.929       .  S
C800        C803   1.487       .  S
C800        C801   1.409       .  A
C801        C802   1.408       .  A
C801       Br809   1.928       .  S
C802       Br813   1.929       .  S
C803        C804   1.411       .  A
C803        C808   1.406       .  A
C804        C805   1.411       .  A
C804       Br815   1.929       .  S
C805        C806   1.410       .  A
C805       Br811   1.928       .  S
C806        C807   1.415       .  A
C807        C808   1.407       .  A
C807       Br816   1.933   1_556  S
C808       Br812   1.930       .  S
C817        C818   1.419       .  A
C817        C822   1.426       .  A
C818        C819   1.409       .  A
C818       Br830   1.929       .  S
C819        C820   1.407       .  A
C819       Br834   1.932   1_455  S
C820        C823   1.485   1_455  S
C820        C821   1.404       .  A
C821        C822   1.407       .  A
C821       Br829   1.934       .  S
C822       Br833   1.937       .  S
C823        C824   1.406       .  A
C823        C828   1.403       .  A
C824        C825   1.411       .  A
C824       Br835   1.934   1_655  S
C825        C826   1.425       .  A
C825       Br831   1.934       .  S
C826        C827   1.428       .  A
C827        C828   1.407       .  A
C827       Br836   1.938       .  S
C828       Br832   1.935       .  S
C837        C838   1.421       .  A
C837        C842   1.419       .  A
C838        C839   1.408       .  A
C838       Br850   1.935       .  S
C839        C840   1.406       .  A
C839       Br854   1.932       .  S
C840        C843   1.486   1_556  S
C840        C841   1.406       .  A
C841        C842   1.409       .  A
C841       Br849   1.933   1_556  S
C842       Br853   1.926       .  S
C843        C844   1.404       .  A
C843        C848   1.411       .  A
C844        C845   1.404       .  A
C844       Br855   1.934       .  S
C845        C846   1.415       .  A
C845       Br851   1.920       .  S
C846        C847   1.412       .  A
C847        C848   1.413       .  A
C847       Br856   1.927       .  S
C848       Br852   1.929   1_554  S
C857        C858   1.411       .  A
C857        C862   1.405   1_556  A
C858        C859   1.409   1_556  A
C858       Br870   1.929       .  S
C859        C860   1.410       .  A
C859       Br874   1.928       .  S
C860        C863   1.487       .  S
C860        C861   1.411       .  A
C861        C862   1.407       .  A
C861       Br869   1.929       .  S
C862       Br873   1.928   1_554  S
C863        C864   1.410       .  A
C863        C868   1.408       .  A
C864        C865   1.410       .  A
C864       Br875   1.929       .  S
C865        C866   1.411       .  A
C865       Br871   1.930       .  S
C866        C867   1.413       .  A
C867        C868   1.408       .  A
C867       Br876   1.930       .  S
C868       Br872   1.931       .  S
C877        C878   1.408       .  A
C877        C882   1.412   1_655  A
C878        C879   1.411   1_655  A
C878       Br890   1.928       .  S
C879        C880   1.414       .  A
C879       Br894   1.928       .  S
C880        C883   1.493       .  S
C880        C881   1.410       .  A
C881        C882   1.407       .  A
C881       Br889   1.931       .  S
C882       Br893   1.932       .  S
C883        C884   1.411       .  A
C883        C888   1.410       .  A
C884        C885   1.410       .  A
C884       Br895   1.931       .  S
C885        C886   1.414       .  A
C885       Br891   1.932       .  S
C886        C887   1.413       .  A
C887        C888   1.411       .  A
C887       Br896   1.928       .  S
C888       Br892   1.930       .  S
C897        C898   1.412       .  A
C897        C902   1.410       .  A
C898        C899   1.410       .  A
C898       Br910   1.930       .  S
C899        C900   1.411       .  A
C899       Br914   1.929       .  S
C900        C903   1.491       .  S
C900        C901   1.408       .  A
C901        C902   1.409       .  A
C901       Br909   1.929       .  S
C902       Br913   1.921       .  S
C903        C904   1.407       .  A
C903        C908   1.409       .  A
C904        C905   1.411       .  A
C904       Br915   1.929       .  S
C905        C906   1.417       .  A
C905       Br911   1.931       .  S
C906        C907   1.419       .  A
C907        C908   1.410       .  A
C907       Br916   1.932       .  S
C908       Br912   1.933       .  S
C917        C918   1.415       .  A
C917        C922   1.415   1_545  A
C918        C919   1.411       .  A
C918       Br930   1.930       .  S
C919        C920   1.408       .  A
C919       Br934   1.929       .  S
C920        C923   1.486   1_556  S
C920        C921   1.406   1_545  A
C921        C922   1.406       .  A
C921       Br929   1.932   1_556  S
C922       Br933   1.925       .  S
C923        C924   1.402       .  A
C923        C928   1.409       .  A
C924        C925   1.406       .  A
C924       Br935   1.936       .  S
C925        C926   1.425       .  A
C925       Br931   1.931       .  S
C926        C927   1.415       .  A
C927        C928   1.413       .  A
C927       Br936   1.929       .  S
C928       Br932   1.929   1_544  S
C937        C938   1.411       .  A
C937        C942   1.408   1_556  A
C938        C939   1.411   1_556  A
C938       Br950   1.929   1_565  S
C939        C940   1.409       .  A
C939       Br954   1.928   1_565  S
C940        C943   1.491       .  S
C940        C941   1.412       .  A
C941        C942   1.410       .  A
C941       Br949   1.929       .  S
C942       Br953   1.928       .  S
C943        C944   1.412       .  A
C943        C948   1.410       .  A
C944        C945   1.411       .  A
C944       Br955   1.928       .  S
C945        C946   1.409       .  A
C945       Br951   1.929       .  S
C946        C947   1.410       .  A
C947        C948   1.409       .  A
C947       Br956   1.929   1_565  S
C948       Br952   1.929       .  S
C957        C958   1.420       .  A
C957        C962   1.421       .  A
C958        C959   1.413       .  A
C958       Br970   1.932       .  S
C959        C960   1.408       .  A
C959       Br974   1.930       .  S
C960        C963   1.491       .  S
C960        C961   1.406       .  A
C961        C962   1.409       .  A
C961       Br969   1.933       .  S
C962       Br973   1.933       .  S
C963        C964   1.409       .  A
C963        C968   1.411       .  A
C964        C965   1.410       .  A
C964       Br975   1.930       .  S
C965        C966   1.412       .  A
C965       Br971   1.927       .  S
C966        C967   1.410       .  A
C967        C968   1.410       .  A
C967       Br976   1.925       .  S
C968       Br972   1.929       .  S
C977        C978   1.422       .  A
C977        C982   1.420       .  A
C978        C979   1.408       .  A
C978       Br990   1.934       .  S
C979        C980   1.403       .  A
C979       Br994   1.931       .  S
C980        C983   1.480   1_565  S
C980        C981   1.406       .  A
C981        C982   1.406       .  A
C981       Br989   1.935   1_565  S
C982       Br993   1.931       .  S
C983        C984   1.408       .  A
C983        C988   1.409   1_545  A
C984        C985   1.406       .  A
C984       Br995   1.930       .  S
C985        C986   1.411   1_655  A
C985       Br991   1.931   1_655  S
C986        C987   1.408   1_545  A
C987        C988   1.405   1_455  A
C987       Br996   1.931       .  S
C988       Br992   1.930       .  S
C997        C998   1.418       .  A
C997       C1002   1.421       .  A
C998        C999   1.414       .  A
C998      Br1010   1.931       .  S
C999       C1000   1.411       .  A
C999      Br1014   1.930       .  S
C1000      C1003   1.493       .  S
C1000      C1001   1.407       .  A
C1001      C1002   1.406       .  A
C1001     Br1009   1.935       .  S
C1002     Br1013   1.937       .  S
C1003      C1004   1.412       .  A
C1003      C1008   1.408       .  A
C1004      C1005   1.414       .  A
C1004     Br1015   1.929       .  S
C1005      C1006   1.413       .  A
C1005     Br1011   1.927       .  S
C1006      C1007   1.420       .  A
C1007      C1008   1.408       .  A
C1007     Br1016   1.934       .  S
C1008     Br1012   1.934       .  S
C1017      C1018   1.416       .  A
C1017      C1022   1.413       .  A
C1018      C1019   1.412       .  A
C1018     Br1030   1.927       .  S
C1019      C1020   1.410       .  A
C1019     Br1034   1.931       .  S
C1020      C1023   1.492       .  S
C1020      C1021   1.409       .  A
C1021      C1022   1.409       .  A
C1021     Br1029   1.929       .  S
C1022     Br1033   1.931       .  S
C1023      C1024   1.411       .  A
C1023      C1028   1.404       .  A
C1024      C1025   1.416       .  A
C1024     Br1035   1.928       .  S
C1025      C1026   1.415       .  A
C1025     Br1031   1.928       .  S
C1026      C1027   1.423       .  A
C1027      C1028   1.407       .  A
C1027     Br1036   1.927       .  S
C1028     Br1032   1.937       .  S
C1037      C1038   1.409       .  A
C1037      C1042   1.411       .  A
C1038      C1039   1.413       .  A
C1038     Br1050   1.928       .  S
C1039      C1040   1.413       .  A
C1039     Br1054   1.928       .  S
C1040      C1043   1.499       .  S
C1040      C1041   1.411       .  A
C1041      C1042   1.412       .  A
C1041     Br1049   1.928       .  S
C1042     Br1053   1.929       .  S
C1043      C1044   1.410       .  A
C1043      C1048   1.414       .  A
C1044      C1045   1.411       .  A
C1044     Br1055   1.929       .  S
C1045      C1046   1.412       .  A
C1045     Br1051   1.930       .  S
C1046      C1047   1.411       .  A
C1047      C1048   1.416       .  A
C1047     Br1056   1.927       .  S
C1048     Br1052   1.928       .  S
C1057      C1058   1.408       .  A
C1057      C1062   1.413   1_565  A
C1058      C1059   1.411       .  A
C1058     Br1070   1.927       .  S
C1059      C1060   1.411   1_565  A
C1059     Br1074   1.928       .  S
C1060      C1063   1.493       .  S
C1060      C1061   1.410       .  A
C1061      C1062   1.412       .  A
C1061     Br1069   1.929       .  S
C1062     Br1073   1.929       .  S
C1063      C1064   1.410       .  A
C1063      C1068   1.412       .  A
C1064      C1065   1.411       .  A
C1064     Br1075   1.927       .  S
C1065      C1066   1.411       .  A
C1065     Br1071   1.929       .  S
C1066      C1067   1.408       .  A
C1067      C1068   1.411       .  A
C1067     Br1076   1.927       .  S
C1068     Br1072   1.929       .  S
C1077      C1078   1.416       .  A
C1077      C1082   1.413       .  A
C1078      C1079   1.405       .  A
C1078     Br1090   1.922       .  S
C1079      C1080   1.404       .  A
C1079     Br1094   1.934       .  S
C1080      C1083   1.489       .  S
C1080      C1081   1.411       .  A
C1081      C1082   1.414       .  A
C1081     Br1089   1.927       .  S
C1082     Br1093   1.928       .  S
C1083      C1084   1.406       .  A
C1083      C1088   1.408       .  A
C1084      C1085   1.410       .  A
C1084     Br1095   1.931       .  S
C1085      C1086   1.421       .  A
C1085     Br1091   1.934       .  S
C1086      C1087   1.420       .  A
C1087      C1088   1.411       .  A
C1087     Br1096   1.928       .  S
C1088     Br1092   1.933       .  S
C1097      C1098   1.408       .  A
C1097      C1102   1.410       .  A
C1098      C1099   1.409       .  A
C1098     Br1110   1.929       .  S
C1099      C1100   1.411       .  A
C1099     Br1114   1.929       .  S
C1100      C1103   1.490       .  S
C1100      C1101   1.410       .  A
C1101      C1102   1.410       .  A
C1101     Br1109   1.929       .  S
C1102     Br1113   1.928       .  S
C1103      C1104   1.407       .  A
C1103      C1108   1.412       .  A
C1104      C1105   1.406       .  A
C1104     Br1115   1.931       .  S
C1105      C1106   1.413       .  A
C1105     Br1111   1.931       .  S
C1106      C1107   1.412       .  A
C1107      C1108   1.413       .  A
C1107     Br1116   1.930       .  S
C1108     Br1112   1.927       .  S
C1117      C1118   1.407       .  A
C1117      C1122   1.412       .  A
C1118      C1119   1.408       .  A
C1118     Br1130   1.928       .  S
C1119      C1120   1.411       .  A
C1119     Br1134   1.929       .  S
C1120      C1123   1.482       .  S
C1120      C1121   1.407       .  A
C1121      C1122   1.404       .  A
C1121     Br1129   1.931       .  S
C1122     Br1133   1.932       .  S
C1123      C1124   1.408       .  A
C1123      C1128   1.411       .  A
C1124      C1125   1.405       .  A
C1124     Br1135   1.929       .  S
C1125      C1126   1.408       .  A
C1125     Br1131   1.929       .  S
C1126      C1127   1.408       .  A
C1127      C1128   1.408       .  A
C1127     Br1136   1.928       .  S
C1128     Br1132   1.929       .  S
C1137      C1138   1.416       .  A
C1137      C1142   1.413       .  A
C1138      C1139   1.405       .  A
C1138     Br1150   1.924       .  S
C1139      C1140   1.404       .  A
C1139     Br1154   1.932       .  S
C1140      C1143   1.479       .  S
C1140      C1141   1.408       .  A
C1141      C1142   1.407       .  A
C1141     Br1149   1.931       .  S
C1142     Br1153   1.931       .  S
C1143      C1144   1.407       .  A
C1143      C1148   1.408       .  A
C1144      C1145   1.405       .  A
C1144     Br1155   1.931       .  S
C1145      C1146   1.411       .  A
C1145     Br1151   1.925       .  S
C1146      C1147   1.409       .  A
C1147      C1148   1.406       .  A
C1147     Br1156   1.927       .  S
C1148     Br1152   1.929       .  S
C1157      C1158   1.416       .  A
C1157      C1162   1.413       .  A
C1158      C1159   1.410       .  A
C1158     Br1170   1.926       .  S
C1159      C1160   1.408       .  A
C1159     Br1174   1.931       .  S
C1160      C1163   1.490   1_455  S
C1160      C1161   1.410       .  A
C1161      C1162   1.410       .  A
C1161     Br1169   1.930   1_455  S
C1162     Br1173   1.930       .  S
C1163      C1164   1.411       .  A
C1163      C1168   1.402       .  A
C1164      C1165   1.416       .  A
C1164     Br1175   1.928       .  S
C1165      C1166   1.415       .  A
C1165     Br1171   1.927       .  S
C1166      C1167   1.421       .  A
C1167      C1168   1.405       .  A
C1167     Br1176   1.920       .  S
C1168     Br1172   1.936   1_655  S
C1177      C1178   1.408       .  A
C1177      C1182   1.409       .  A
C1178      C1179   1.407       .  A
C1178     Br1190   1.926       .  S
C1179      C1180   1.409       .  A
C1179     Br1194   1.929       .  S
C1180      C1183   1.486       .  S
C1180      C1181   1.411       .  A
C1181      C1182   1.409       .  A
C1181     Br1189   1.929       .  S
C1182     Br1193   1.929       .  S
C1183      C1184   1.405       .  A
C1183      C1188   1.412       .  A
C1184      C1185   1.404       .  A
C1184     Br1195   1.932       .  S
C1185      C1186   1.415       .  A
C1185     Br1191   1.934       .  S
C1186      C1187   1.411       .  A
C1187      C1188   1.413       .  A
C1187     Br1196   1.929       .  S
C1188     Br1192   1.928       .  S
C1197      C1198   1.407       .  A
C1197      C1202   1.411       .  A
C1198      C1199   1.409       .  A
C1198     Br1210   1.928       .  S
C1199      C1200   1.411       .  A
C1199     Br1214   1.928       .  S
C1200      C1203   1.488       .  S
C1200      C1201   1.409       .  A
C1201      C1202   1.408       .  A
C1201     Br1209   1.929       .  S
C1202     Br1213   1.931       .  S
C1203      C1204   1.411       .  A
C1203      C1208   1.409       .  A
C1204      C1205   1.410       .  A
C1204     Br1215   1.928       .  S
C1205      C1206   1.408       .  A
C1205     Br1211   1.928       .  S
C1206      C1207   1.409       .  A
C1207      C1208   1.408       .  A
C1207     Br1216   1.928       .  S
C1208     Br1212   1.929       .  S
C1217      C1218   1.410       .  A
C1217      C1222   1.409       .  A
C1218      C1219   1.405       .  A
C1218     Br1230   1.929       .  S
C1219      C1220   1.407       .  A
C1219     Br1234   1.930       .  S
C1220      C1223   1.485       .  S
C1220      C1221   1.411       .  A
C1221      C1222   1.410       .  A
C1221     Br1229   1.929       .  S
C1222     Br1233   1.925       .  S
C1223      C1224   1.408       .  A
C1223      C1228   1.409       .  A
C1224      C1225   1.405       .  A
C1224     Br1235   1.932       .  S
C1225      C1226   1.414       .  A
C1225     Br1231   1.932       .  S
C1226      C1227   1.413       .  A
C1227      C1228   1.411       .  A
C1227     Br1236   1.929       .  S
C1228     Br1232   1.928       .  S
C1237      C1238   1.410       .  A
C1237      C1242   1.408       .  A
C1238      C1239   1.407       .  A
C1238     Br1250   1.932       .  S
C1239      C1240   1.409       .  A
C1239     Br1254   1.928       .  S
C1240      C1243   1.485       .  S
C1240      C1241   1.411       .  A
C1241      C1242   1.406       .  A
C1241     Br1249   1.930       .  S
C1242     Br1253   1.930       .  S
C1243      C1244   1.404       .  A
C1243      C1248   1.407       .  A
C1244      C1245   1.409       .  A
C1244     Br1255   1.931       .  S
C1245      C1246   1.422       .  A
C1245     Br1251   1.933       .  S
C1246      C1247   1.421       .  A
C1247      C1248   1.409       .  A
C1247     Br1256   1.932       .  S
C1248     Br1252   1.933       .  S
C1257      C1258   1.420       .  A
C1257      C1262   1.421       .  A
C1258      C1259   1.413       .  A
C1258     Br1270   1.925       .  S
C1259      C1260   1.408       .  A
C1259     Br1274   1.931       .  S
C1260      C1263   1.490   1_655  S
C1260      C1261   1.405       .  A
C1261      C1262   1.408       .  A
C1261     Br1269   1.932   1_645  S
C1262     Br1273   1.934       .  S
C1263      C1264   1.411       .  A
C1263      C1268   1.403   1_545  A
C1264      C1265   1.415       .  A
C1264     Br1275   1.927       .  S
C1265      C1266   1.412   1_545  A
C1265     Br1271   1.926       .  S
C1266      C1267   1.419       .  A
C1267      C1268   1.406       .  A
C1267     Br1276   1.916       .  S
C1268     Br1272   1.936   1_455  S
C1277      C1278   1.412   1_565  A
C1277      C1282   1.410       .  A
C1278      C1279   1.413       .  A
C1278     Br1290   1.929       .  S
C1279      C1280   1.411       .  A
C1279     Br1294   1.928       .  S
C1280      C1283   1.498       .  S
C1280      C1281   1.412   1_545  A
C1281      C1282   1.413       .  A
C1281     Br1289   1.928       .  S
C1282     Br1293   1.927       .  S
C1283      C1284   1.411       .  A
C1283      C1288   1.413       .  A
C1284      C1285   1.412       .  A
C1284     Br1295   1.927       .  S
C1285      C1286   1.411       .  A
C1285     Br1291   1.930       .  S
C1286      C1287   1.409       .  A
C1287      C1288   1.413       .  A
C1287     Br1296   1.928       .  S
C1288     Br1292   1.928       .  S
C1297      C1298   1.413       .  A
C1297      C1302   1.410       .  A
C1298      C1299   1.408       .  A
C1298     Br1310   1.932       .  S
C1299      C1300   1.408       .  A
C1299     Br1314   1.930       .  S
C1300      C1303   1.493       .  S
C1300      C1301   1.413       .  A
C1301      C1302   1.413       .  A
C1301     Br1309   1.927       .  S
C1302     Br1313   1.927       .  S
C1303      C1304   1.410       .  A
C1303      C1308   1.410       .  A
C1304      C1305   1.414       .  A
C1304     Br1315   1.930   1_565  S
C1305      C1306   1.414       .  A
C1305     Br1311   1.923   1_565  S
C1306      C1307   1.412       .  A
C1307      C1308   1.410       .  A
C1307     Br1316   1.929       .  S
C1308     Br1312   1.931       .  S
C1317      C1318   1.428       .  A
C1317      C1322   1.421       .  A
C1318      C1319   1.406       .  A
C1318     Br1330   1.939       .  S
C1319      C1320   1.402       .  A
C1319     Br1334   1.935   1_655  S
C1320      C1323   1.482   1_655  S
C1320      C1321   1.406       .  A
C1321      C1322   1.410       .  A
C1321     Br1329   1.932       .  S
C1322     Br1333   1.933       .  S
C1323      C1324   1.402       .  A
C1323      C1328   1.405       .  A
C1324      C1325   1.405       .  A
C1324     Br1335   1.937   1_455  S
C1325      C1326   1.426       .  A
C1325     Br1331   1.938       .  S
C1326      C1327   1.425       .  A
C1327      C1328   1.411       .  A
C1327     Br1336   1.934       .  S
C1328     Br1332   1.932       .  S
C1337      C1338   1.413   1_565  A
C1337      C1342   1.416       .  A
C1338      C1339   1.413       .  A
C1338     Br1350   1.929       .  S
C1339      C1340   1.411   1_545  A
C1339     Br1354   1.928       .  S
C1340      C1343   1.487   1_565  S
C1340      C1341   1.409       .  A
C1341      C1342   1.403       .  A
C1341     Br1349   1.937       .  S
C1342     Br1353   1.934       .  S
C1343      C1344   1.410       .  A
C1343      C1348   1.407       .  A
C1344      C1345   1.411       .  A
C1344     Br1355   1.929       .  S
C1345      C1346   1.415       .  A
C1345     Br1351   1.929       .  S
C1346      C1347   1.418       .  A
C1347      C1348   1.405       .  A
C1347     Br1356   1.936       .  S
C1348     Br1352   1.934       .  S
C1357      C1358   1.409       .  A
C1357      C1362   1.412       .  A
C1358      C1359   1.410       .  A
C1358     Br1370   1.924       .  S
C1359      C1360   1.412       .  A
C1359     Br1374   1.929       .  S
C1360      C1363   1.490       .  S
C1360      C1361   1.409       .  A
C1361      C1362   1.408       .  A
C1361     Br1369   1.930       .  S
C1362     Br1373   1.930       .  S
C1363      C1364   1.409       .  A
C1363      C1368   1.410       .  A
C1364      C1365   1.406       .  A
C1364     Br1375   1.932       .  S
C1365      C1366   1.415       .  A
C1365     Br1371   1.933       .  S
C1366      C1367   1.415       .  A
C1367      C1368   1.412       .  A
C1367     Br1376   1.929       .  S
C1368     Br1372   1.929       .  S
