geometry optimzed in LAMMPS
_audit_creation_date              2020-12-01 
_audit_creation_method            'lammps2cif' 
_symmetry_space_group_name_H-M    'P1' 
_symmetry_Int_Tables_number       1 
_symmetry_cell_setting            triclinic 
loop_ 
_symmetry_equiv_pos_as_xyz 
  x,y,z 
_cell_length_a                    36.72660785 
_cell_length_b                    36.68380206796327 
_cell_length_c                    43.84174020399638 
_cell_angle_alpha                 89.69837226418335 
_cell_angle_beta                  90.91786838003789 
_cell_angle_gamma                 89.78356585318045 
loop_ 
_atom_site_label 
_atom_site_type_symbol 
_atom_site_fract_x 
_atom_site_fract_y 
_atom_site_fract_z 
_atom_site_charge 
Fe1        Fe  0.53162166  0.73784122  0.48833354     1.65800
Fe2        Fe  0.56431288  0.66011542  0.45972022     1.73200
Fe3        Fe  0.61699981  0.71152659  0.00496707     1.54400
O4          O  0.62011455  0.76403949  0.98981802    -0.81900
O5          O  0.59998609  0.62655717  0.48401539    -0.80200
O6          O  0.56481155  0.78430282  0.49381559    -0.84400
O7          O  0.53158498  0.73335852  0.03446085    -0.79200
O8          O  0.64748147  0.69523353  0.46551131    -0.81000
O9          O  0.52263590  0.64357895  0.48695123    -0.83800
C10         C  0.55803190  0.73241541  0.05335760     0.97000
C11         C  0.59913046  0.78930747  0.49448452     1.04400
O12         O  0.57179352  0.70311711  0.48457412    -1.12700
O13         O  0.52749765  0.68564519  0.43067132    -0.75200
O14         O  0.52777315  0.74475376  0.44148995    -0.78700
O15         O  0.59121227  0.72775084  0.04548140    -0.79400
C16         C  0.51954564  0.71839799  0.42397293     0.95900
O17         O  0.49114886  0.69640202  0.98732130    -0.77300
O18         O  0.60545852  0.67575763  0.43171852    -0.82500
C19         C  0.61620272  0.63001646  0.00932142     0.98500
C20         C  0.63791709  0.68475022  0.43862078     1.04400
O21         O  0.61974686  0.65996552  0.02309139    -0.78200
C22         C  0.49346853  0.66166550  0.49047403     1.02700
Fe23       Fe  0.76997694  0.50641655  0.29749263     1.65800
Fe24       Fe  0.69104129  0.53852145  0.32413589     1.73200
Fe25       Fe  0.74140729  0.59212224  0.27999919     1.54400
O26         O  0.79204993  0.59574243  0.29916056    -0.81900
O27         O  0.65803364  0.57297005  0.29798625    -0.80200
O28         O  0.81582546  0.54084575  0.29311896    -0.84400
O29         O  0.76547286  0.50655280  0.25131583    -0.79200
O30         O  0.72147861  0.62237322  0.31760903    -0.81000
O31         O  0.67618465  0.49630561  0.29671958    -0.83800
C32         C  0.76598608  0.53276638  0.23238150     0.97000
C33         C  0.81922300  0.57537231  0.29442842     1.04400
O34         O  0.73419403  0.54585027  0.30024364    -1.12700
O35         O  0.71664454  0.50272696  0.35435716    -0.75200
O36         O  0.77588154  0.50341105  0.34458260    -0.78700
O37         O  0.76124910  0.56607481  0.24034326    -0.79400
C38         C  0.74945182  0.49542598  0.36179210     0.95900
O39         O  0.72908333  0.46640875  0.29813126    -0.77300
O40         O  0.70484609  0.58083753  0.35218035    -0.82500
C41         C  0.66072024  0.58995516  0.27282679     0.98500
C42         C  0.71118559  0.61359741  0.34450232     1.04400
O43         O  0.69080404  0.59305731  0.25942668    -0.78200
C44         C  0.69469201  0.46744961  0.29315523     1.02700
Fe45       Fe  0.53508166  0.22488360  0.24197932     1.65800
Fe46       Fe  0.56645451  0.30063083  0.20775131     1.73200
Fe47       Fe  0.61947813  0.25795284  0.25945789     1.54400
O48         O  0.59306159  0.24469009  0.29998999    -0.81900
O49         O  0.60987555  0.28356693  0.18295715    -0.80200
O50         O  0.53493531  0.23296276  0.28807339    -0.84400
O51         O  0.57062343  0.18079232  0.24925252    -0.79200
O52         O  0.61695323  0.31103532  0.27306625    -0.81000
O53         O  0.53172871  0.27149423  0.17989810    -0.83800
C54         C  0.60502547  0.17755318  0.25239170     0.97000
C55         C  0.56037874  0.23764587  0.30752573     1.04400
O56         O  0.57397563  0.26059135  0.23638079    -1.12700
O57         O  0.52311939  0.31826100  0.23220414    -0.75200
O58         O  0.49467897  0.26497639  0.23791225    -0.78700
O59         O  0.62676687  0.20406567  0.24973936    -0.79400
C60         C  0.49517960  0.29974982  0.23885176     0.95900
O61         O  0.53080016  0.21398720  0.19566519    -0.77300
O62         O  0.59965147  0.33793113  0.23009007    -0.82500
C63         C  0.64246580  0.27948010  0.19262384     0.98500
C64         C  0.61492214  0.33889252  0.25615220     1.04400
O65         O  0.65031286  0.27235434  0.22067163    -0.78200
C66         C  0.52225463  0.23861657  0.17634010     1.02700
Fe67       Fe  0.76715848  0.45935512  0.04771759     1.65800
Fe68       Fe  0.69282377  0.43011439  0.08391520     1.73200
Fe69       Fe  0.73006068  0.37690884  0.03144925     1.54400
O70         O  0.74508699  0.40312951  0.49132285    -0.81900
O71         O  0.71083298  0.38622114  0.10880343    -0.80200
O72         O  0.75889528  0.46071304  0.50282620    -0.84400
O73         O  0.80933408  0.42218481  0.03718850    -0.79200
O74         O  0.67627625  0.38211589  0.01913134    -0.81000
O75         O  0.72470247  0.46440470  0.11037291    -0.83800
C76         C  0.81050552  0.38767458  0.03338811     0.97000
C77         C  0.75282339  0.43578241  0.48353267     1.04400
O78         O  0.73058392  0.42176655  0.05431244    -1.12700
O79         O  0.67481316  0.47376041  0.05889244    -0.75200
O80         O  0.72852114  0.50128757  0.05353221    -0.78700
O81         O  0.78409529  0.36719299  0.04006193    -0.79400
C82         C  0.69366426  0.50159670  0.05229668     0.95900
O83         O  0.78139929  0.46066063  0.09375923    -0.77300
O84         O  0.65325178  0.39731120  0.06335533    -0.82500
C85         C  0.71296199  0.35363069  0.09920825     0.98500
C86         C  0.64983560  0.38329165  0.03711923     1.04400
O87         O  0.71720759  0.34607902  0.07090189    -0.78200
C88         C  0.75851397  0.47038042  0.11363868     1.02700
Fe89       Fe  0.49152370  0.22305447  0.49423640     1.65800
Fe90       Fe  0.45779842  0.29893235  0.46120963     1.73200
Fe91       Fe  0.40178887  0.25061244  0.00716692     1.54400
O92         O  0.39911987  0.19834949  0.99146508    -0.81900
O93         O  0.42209673  0.33241534  0.48424927    -0.80200
O94         O  0.45777967  0.17714160  0.49903859    -0.84400
O95         O  0.48656850  0.23058163  0.04024469    -0.79200
O96         O  0.37483281  0.26816590  0.46809888    -0.81000
O97         O  0.49905309  0.31762750  0.48838554    -0.83800
C98         C  0.45947160  0.22934739  0.05772031     0.97000
C99         C  0.42340399  0.17239807  0.49795322     1.04400
O100        O  0.45121876  0.25718932  0.48780149    -1.12700
O101        O  0.49498468  0.27302620  0.43374842    -0.75200
O102        O  0.49702535  0.21471170  0.44765055    -0.78700
O103        O  0.42660046  0.23339374  0.04830866    -0.79400
C104        C  0.50385896  0.24017026  0.42881418     0.95900
O105        O  0.52723550  0.26743051  0.99403144    -0.77300
O106        O  0.41650411  0.28139987  0.43322979    -0.82500
C107        C  0.40324235  0.33164205  0.00929263     0.98500
C108        C  0.38364675  0.27692314  0.44090667     1.04400
O109        O  0.40072446  0.30236236  0.02448360    -0.78200
C110        C  0.52765383  0.30016338  0.49586622     1.02700
Fe111      Fe  0.25589967  0.45771503  0.29289818     1.65800
Fe112      Fe  0.33370030  0.42516314  0.32294869     1.73200
Fe113      Fe  0.28263767  0.37075393  0.27896159     1.54400
O114        O  0.23109831  0.36756406  0.29578220    -0.81900
O115        O  0.36618101  0.38969174  0.29937266    -0.80200
O116        O  0.21013623  0.42371470  0.28770072    -0.84400
O117        O  0.26068229  0.45568246  0.24684647    -0.79200
O118        O  0.30174431  0.34158319  0.31772353    -0.81000
O119        O  0.34981719  0.46633886  0.29486599    -0.83800
C120        C  0.25980860  0.42843409  0.22916662     0.97000
C121        C  0.20537255  0.38935284  0.28916732     1.04400
O122        O  0.29053620  0.41764248  0.29803794    -1.12700
O123        O  0.30880956  0.46203921  0.35095568    -0.75200
O124        O  0.24959023  0.46201549  0.33979747    -0.78700
O125        O  0.26384698  0.39547785  0.23831915    -0.79400
C126        C  0.27608255  0.46782552  0.35821827     0.95900
O127        O  0.29747599  0.49706965  0.29374188    -0.77300
O128        O  0.31871144  0.38382080  0.35159226    -0.82500
C129        C  0.36346343  0.37276677  0.27438028     0.98500
C130        C  0.31223523  0.35092415  0.34453793     1.04400
O131        O  0.33341590  0.36961320  0.26020633    -0.78200
C132        C  0.33185803  0.49530220  0.28961153     1.02700
Fe133      Fe  0.48794266  0.73834688  0.23719630     1.65800
Fe134      Fe  0.45527749  0.66333412  0.20341097     1.73200
Fe135      Fe  0.40288348  0.70790607  0.25281014     1.54400
O136        O  0.43094336  0.72043198  0.29339087    -0.81900
O137        O  0.41170883  0.68011245  0.17750073    -0.80200
O138        O  0.48991454  0.72751330  0.28254850    -0.84400
O139        O  0.45361576  0.78278404  0.24700743    -0.79200
O140        O  0.40353572  0.65504518  0.26732318    -0.81000
O141        O  0.48930020  0.69305626  0.17580313    -0.83800
C142        C  0.41927075  0.78714071  0.24876493     0.97000
C143        C  0.46425141  0.72518178  0.30137814     1.04400
O144        O  0.44827611  0.70357785  0.23114860    -1.12700
O145        O  0.49903859  0.64549393  0.22864773    -0.75200
O146        O  0.52845157  0.69825399  0.23168475    -0.78700
O147        O  0.39702060  0.76203313  0.24211362    -0.79400
C148        C  0.52784431  0.66350341  0.23390202     0.95900
O149        O  0.48887651  0.75078052  0.19114201    -0.77300
O150        O  0.42223577  0.62650704  0.22613213    -0.82500
C151        C  0.37924796  0.68569025  0.18592671     0.98500
C152        C  0.40580879  0.62670664  0.25134610     1.04400
O153        O  0.37136207  0.69388135  0.21350541    -0.78200
C154        C  0.49683679  0.72646261  0.17177955     1.02700
Fe155      Fe  0.25162516  0.50122193  0.04529036     1.65800
Fe156      Fe  0.32893582  0.53329254  0.07674674     1.73200
Fe157      Fe  0.28160732  0.58653900  0.02773618     1.54400
O158        O  0.26762569  0.55974916  0.48634487    -0.81900
O159        O  0.31309327  0.57629800  0.10304107    -0.80200
O160        O  0.26036175  0.50093518  0.49889576    -0.84400
O161        O  0.20625542  0.53532677  0.04002871    -0.79200
O162        O  0.33403764  0.58669451  0.01228431    -0.81000
O163        O  0.30196079  0.49808444  0.10532411    -0.83800
C164        C  0.20219201  0.56971937  0.03899214     0.97000
C165        C  0.26375929  0.52620855  0.47932598     1.04400
O166        O  0.28699861  0.54067360  0.04986482    -1.12700
O167        O  0.34551110  0.49019270  0.05107924    -0.75200
O168        O  0.29233952  0.46127342  0.04764489    -0.78700
O169        O  0.22865720  0.59170278  0.04013351    -0.79400
C170        C  0.32697302  0.46170042  0.04585044     0.95900
O171        O  0.24357105  0.49699506  0.09164870    -0.77300
O172        O  0.36421527  0.56685254  0.05314595    -0.82500
C173        C  0.30599910  0.60872454  0.09441278     0.98500
C174        C  0.36326714  0.58318913  0.02762113     1.04400
O175        O  0.29700055  0.61686748  0.06680144    -0.78200
C176        C  0.26933618  0.48879772  0.11009395     1.02700
Fe177      Fe  0.03658438  0.23944010  0.23131498     1.65800
Fe178      Fe  0.06957233  0.16135774  0.20406593     1.73200
Fe179      Fe  0.12258610  0.21141330  0.25027150     1.54400
O180        O  0.12699843  0.26354394  0.23384318    -0.81900
O181        O  0.10357968  0.12789425  0.22974541    -0.80200
O182        O  0.07062942  0.28503253  0.23756755    -0.84400
O183        O  0.03663176  0.23412184  0.27756014    -0.79200
O184        O  0.15303066  0.19349524  0.21263116    -0.81000
O185        O  0.02703200  0.14558244  0.23031620    -0.83800
C186        C  0.06261715  0.23373635  0.29700861     0.97000
C187        C  0.10504218  0.28934621  0.23887039     1.04400
O188        O  0.07654588  0.20435557  0.22871855    -1.12700
O189        O  0.03428842  0.18693232  0.17380351    -0.75200
O190        O  0.03346764  0.24612855  0.18407274    -0.78700
O191        O  0.09597345  0.22917305  0.28976983    -0.79400
C192        C  0.02743758  0.21960019  0.16602303     0.95900
O193        O  0.99690695  0.19838449  0.22904383    -0.77300
O194        O  0.11196426  0.17628546  0.17728201    -0.82500
C195        C  0.11979785  0.12994049  0.25538382     0.98500
C196        C  0.14441989  0.18350704  0.18550443     1.04400
O197        O  0.12322494  0.15993552  0.26918793    -0.78200
C198        C  0.99799170  0.16391190  0.23330524     1.02700
Fe199      Fe  0.26682172  0.00665807  0.04319951     1.65800
Fe200      Fe  0.18929471  0.03934899  0.07025076     1.73200
Fe201      Fe  0.23879057  0.09225322  0.02404500     1.54400
O202        O  0.29152029  0.09709647  0.03919672    -0.81900
O203        O  0.15603066  0.07503137  0.04587115    -0.80200
O204        O  0.31256426  0.04010973  0.03904809    -0.84400
O205        O  0.26149867  0.00584062  0.49776825    -0.79200
O206        O  0.22245350  0.12247865  0.06262616    -0.81000
O207        O  0.17285708  0.99778854  0.04231009    -0.83800
C208        C  0.25878360  0.03073599  0.47779142     0.97000
C209        C  0.31746090  0.07440412  0.03825075     1.04400
O210        O  0.23205291  0.04655421  0.04573929    -1.12700
O211        O  0.21458905  0.00243288  0.09992321    -0.75200
O212        O  0.27356639  0.00442652  0.08993238    -0.78700
O213        O  0.25589093  0.06466002  0.48417865    -0.79400
C214        C  0.24755623  0.99577738  0.10718283     0.95900
O215        O  0.22536142  0.96726142  0.04389867    -0.77300
O216        O  0.20541696  0.08122182  0.09764612    -0.82500
C217        C  0.15761672  0.09162601  0.02052110     0.98500
C218        C  0.21289825  0.11374100  0.08975264     1.04400
O219        O  0.18691801  0.09320283  0.00595603    -0.78200
C220        C  0.19129767  0.96914263  0.03746298     1.02700
Fe221      Fe  0.03746691  0.72341024  0.48263425     1.65800
Fe222      Fe  0.06993062  0.79908468  0.44955704     1.73200
Fe223      Fe  0.12103775  0.75680340  0.99925977     1.54400
O224        O  0.09451946  0.74555714  0.04007424    -0.81900
O225        O  0.11300552  0.78262661  0.42385286    -0.80200
O226        O  0.03662158  0.73193185  0.02844086    -0.84400
O227        O  0.07064465  0.67787233  0.49247304    -0.79200
O228        O  0.11984717  0.81026394  0.01189225    -0.81000
O229        O  0.03516205  0.77014217  0.42130624    -0.83800
C230        C  0.10477178  0.67304362  0.49614290     0.97000
C231        C  0.06212782  0.73726142  0.04765970     1.04400
O232        O  0.07745059  0.75800445  0.47720251    -1.12700
O233        O  0.02679899  0.81681059  0.47468091    -0.75200
O234        O  0.99760218  0.76401761  0.47730372    -0.78700
O235        O  0.12760133  0.69792094  0.49069973    -0.68200
C236        C  0.99818051  0.79863260  0.47980002     0.95900
O237        O  0.03494151  0.71217114  0.43641747    -0.77300
O238        O  0.10329710  0.83578329  0.47252428    -0.82500
C239        C  0.14525955  0.77384899  0.43204318     0.98500
C240        C  0.11781561  0.83828440  0.99525586     1.04400
O241        O  0.15376537  0.76424268  0.45951425    -0.78200
C242        C  0.02693580  0.73696893  0.41704458     1.02700
Fe243      Fe  0.26772704  0.95905057  0.29415567     1.65800
Fe244      Fe  0.19140679  0.92244443  0.32138806     1.73200
Fe245      Fe  0.24223515  0.87288965  0.27434563     1.54400
O246        O  0.25719674  0.90213462  0.23492634    -0.81900
O247        O  0.20810069  0.87908910  0.34774899    -0.80200
O248        O  0.26141934  0.96098169  0.24805376    -0.84400
O249        O  0.31464302  0.92692594  0.28805918    -0.79200
O250        O  0.19050238  0.87050460  0.25602515    -0.81000
O251        O  0.21633544  0.95703984  0.35164091    -0.83800
C252        C  0.32021036  0.89267552  0.28713788     0.97000
C253        C  0.26072930  0.93599347  0.22819784     1.04400
O254        O  0.23409465  0.91783342  0.29646974    -1.12700
O255        O  0.17366195  0.96610964  0.29590706    -0.75200
O256        O  0.22549356  0.99743643  0.29714925    -0.78700
O257        O  0.29482924  0.86972147  0.28964358    -0.79400
C258        C  0.19105353  0.99572516  0.29296234     0.95900
O259        O  0.27519475  0.96018765  0.34119671    -0.77300
O260        O  0.15883118  0.88840484  0.29564010    -0.82500
C261        C  0.21672816  0.84714718  0.33937228     0.98500
C262        C  0.16085257  0.87267176  0.27011883     1.04400
O263        O  0.22688541  0.84002000  0.31214335    -0.78200
C264        C  0.24879045  0.96463023  0.35928970     1.02700
Fe265      Fe  0.99209981  0.71905843  0.23130158     1.65800
Fe266      Fe  0.96082024  0.79725768  0.19997408     1.73200
Fe267      Fe  0.90816027  0.75207278  0.24775049     1.54400
O268        O  0.90209760  0.70045880  0.23164184    -0.81900
O269        O  0.92867733  0.83333735  0.22403737    -0.80200
O270        O  0.95575355  0.67513831  0.24059758    -0.84400
O271        O  0.99492641  0.72660661  0.27709093    -0.79200
O272        O  0.87668857  0.77047217  0.20960135    -0.81000
O273        O  0.00447564  0.81229228  0.22574981    -0.83800
C274        C  0.96917227  0.72825588  0.29587273     0.97000
C275        C  0.92100303  0.67422561  0.24179675     1.04400
O276        O  0.95361414  0.75610614  0.22666213    -1.12700
O277        O  0.99437750  0.76854008  0.17178041    -0.75200
O278        O  0.99294241  0.70982907  0.18464390    -0.78700
O279        O  0.93614124  0.73459491  0.28775085    -0.79400
C280        C  0.00185974  0.73542526  0.16652381     0.95900
O281        O  0.03349854  0.75869606  0.22701658    -0.77300
O282        O  0.91713333  0.78269460  0.17344515    -0.82500
C283        C  0.91351920  0.83282759  0.24980870     0.98500
C284        C  0.88457406  0.77830144  0.18194377     1.04400
O285        O  0.91031366  0.80374943  0.26511781    -0.78200
C286        C  0.03312185  0.79342250  0.23000787     1.02700
Fe287      Fe  0.75705322  0.95905189  0.03251982     1.65800
Fe288      Fe  0.83297999  0.92790501  0.06742431     1.73200
Fe289      Fe  0.78647807  0.87249719  0.02017674     1.54400
O290        O  0.73242939  0.86798057  0.03078418    -0.81900
O291        O  0.86902177  0.89306327  0.04601676    -0.80200
O292        O  0.71174584  0.92476166  0.02531376    -0.84400
O293        O  0.76615587  0.95747231  0.48599980    -0.79200
O294        O  0.80072352  0.84388151  0.06090777    -0.81000
O295        O  0.85049185  0.96941542  0.04010355    -0.83800
C296        C  0.76869829  0.93078240  0.46788462     0.97000
C297        C  0.70685363  0.89036909  0.02515494     1.04400
O298        O  0.79177154  0.91937304  0.04006731    -1.12700
O299        O  0.80451951  0.96465687  0.09380446    -0.75200
O300        O  0.74649142  0.96377612  0.07845643    -0.78700
O301        O  0.77296942  0.89774324  0.47691156    -0.79400
C302        C  0.77121542  0.97254658  0.09762640     0.95900
O303        O  0.79769414  0.99927734  0.03589373    -0.77300
O304        O  0.81681383  0.88614246  0.09533896    -0.82500
C305        C  0.86812156  0.87518947  0.02138793     0.98500
C306        C  0.80999215  0.85329107  0.08812543     1.04400
O307        O  0.83910791  0.87093983  0.00608059    -0.78200
C308        C  0.83236868  0.99808206  0.03403513     1.02700
Fe309      Fe  0.98764538  0.24329505  0.47959643     1.65800
Fe310      Fe  0.95771468  0.16584126  0.44824051     1.73200
Fe311      Fe  0.90216717  0.21095330  0.99740967     1.54400
O312        O  0.92813328  0.22900422  0.03819503    -0.81900
O313        O  0.91461755  0.18106742  0.42102267    -0.80200
O314        O  0.98673393  0.23599369  0.02618155    -0.84400
O315        O  0.95120426  0.28720240  0.48576826    -0.79200
O316        O  0.90558410  0.15936128  0.01535003    -0.81000
O317        O  0.99253805  0.19444967  0.42010569    -0.83800
C318        C  0.91656871  0.28968214  0.48437735     0.97000
C319        C  0.96179314  0.23266084  0.04560663     1.04400
O320        O  0.94952201  0.20694415  0.47454200    -1.12700
O321        O  0.00056387  0.15008897  0.47523750    -0.75200
O322        O  0.02920622  0.20363947  0.47693909    -0.78700
O323        O  0.89663065  0.26220451  0.47948421    -0.79400
C324        C  0.02868971  0.16904064  0.48069968     0.95900
O325        O  0.98988573  0.25290112  0.43315845    -0.77300
O326        O  0.92419562  0.13015619  0.47192893    -0.82500
C327        C  0.88189203  0.18362472  0.42969633     0.98500
C328        C  0.90758759  0.13038474  0.00007289     1.04400
O329        O  0.87375610  0.19141142  0.45726367    -0.78200
C330        C  0.99907617  0.22787302  0.41485913     1.02700
Fe331      Fe  0.75822763  0.00163058  0.28128929     1.65800
Fe332      Fe  0.83423502  0.03326236  0.31520714     1.73200
Fe333      Fe  0.78692998  0.08820724  0.26768975     1.54400
O334        O  0.77111828  0.06447164  0.22603384    -0.81900
O335        O  0.81652659  0.07431867  0.34280088    -0.80200
O336        O  0.76350661  0.00497228  0.23523478    -0.84400
O337        O  0.71242435  0.03564655  0.27795641    -0.79200
O338        O  0.83936539  0.08902841  0.25210813    -0.81000
O339        O  0.80819552  0.99558073  0.34213951    -0.83800
C340        C  0.70789155  0.07001206  0.27910064     0.97000
C341        C  0.76531061  0.03187620  0.21706785     1.04400
O342        O  0.79284898  0.04117031  0.28778005    -1.12700
O343        O  0.85279715  0.99195895  0.28843840    -0.75200
O344        O  0.80011529  0.96259029  0.28220254    -0.78700
O345        O  0.73406310  0.09231963  0.28083178    -0.79400
C346        C  0.83492003  0.96335002  0.28209154     0.95900
O347        O  0.75009893  0.99508672  0.32748997    -0.77300
O348        O  0.86844697  0.06933306  0.29351541    -0.82500
C349        C  0.81108129  0.10733064  0.33498877     0.98500
C350        C  0.86814181  0.08601360  0.26817084     1.04400
O351        O  0.80273717  0.11665811  0.30753536    -0.78200
C352        C  0.77530057  0.98723474  0.34654026     1.02700
C353        C  0.81848397  0.13539462  0.35862821    -0.00400
C354        C  0.81089079  0.12694788  0.38920486    -0.12200
C355        C  0.82793548  0.14564930  0.41331608     0.01900
C356        C  0.85332495  0.17341147  0.40698173    -0.00500
C357        C  0.85765778  0.18457051  0.37652718    -0.12200
C358        C  0.84041042  0.16605520  0.35241490     0.01800
H359        H  0.79385487  0.10359652  0.39430056     0.14700
H360        H  0.87708347  0.20592385  0.37138679     0.14700
C361        C  0.84935213  0.17638347  0.32160104     0.36400
C362        C  0.82216955  0.13271893  0.44401512     0.36300
N363        N  0.85659632  0.18467271  0.29693073    -0.44000
N364        N  0.81729713  0.12212361  0.46851133    -0.44000
C365        C  0.89019621  0.09647619  0.01152150    -0.00400
C366        C  0.90057746  0.06296406  0.99883221    -0.12200
C367        C  0.88209679  0.03074425  0.00572948     0.01900
C368        C  0.85245825  0.03149491  0.02582406    -0.00500
C369        C  0.84233951  0.06468213  0.03898835    -0.12200
C370        C  0.86093165  0.09696381  0.03228884     0.01800
H371        H  0.92274638  0.06197622  0.98278638     0.14700
H372        H  0.81978633  0.06537486  0.05468934     0.14700
C373        C  0.84804390  0.13016317  0.04611144     0.36400
C374        C  0.89267841  0.99776631  0.99030081     0.36300
N375        N  0.83755310  0.15664647  0.05726905    -0.44000
N376        N  0.90107251  0.97151620  0.97764287    -0.44000
C377        C  0.76739733  0.96799816  0.37515468    -0.00400
C378        C  0.78957633  0.93815529  0.38361496    -0.12200
C379        C  0.78906413  0.92386551  0.41328974     0.01900
C380        C  0.76606614  0.93973701  0.43500168    -0.00500
C381        C  0.74232062  0.96816576  0.42585920    -0.12200
C382        C  0.74283386  0.98236218  0.39622809     0.01800
H383        H  0.80871581  0.92728855  0.36744407     0.14700
H384        H  0.72440409  0.98040146  0.44232515     0.14700
C385        C  0.72065876  0.01393322  0.38896304     0.36400
C386        C  0.81473758  0.89540571  0.42147922     0.36300
N387        N  0.70315361  0.03939616  0.38310725    -0.44000
N388        N  0.83546673  0.87272438  0.42801138    -0.44000
C389        C  0.76249546  0.99320939  0.12530719    -0.00400
C390        C  0.78446856  0.02328255  0.13283621    -0.12200
C391        C  0.78353210  0.03886032  0.16190877     0.01900
C392        C  0.76083831  0.02359051  0.18420578    -0.00500
C393        C  0.73669591  0.99548414  0.17573297    -0.12200
C394        C  0.73705042  0.98054042  0.14643477     0.01800
H395        H  0.80378459  0.03343322  0.11639401     0.14700
H396        H  0.71875426  0.98385289  0.19257051     0.14700
C397        C  0.71339184  0.95024395  0.13951985     0.36400
C398        C  0.80834752  0.06821224  0.16890205     0.36300
N399        N  0.69448735  0.92593310  0.13390687    -0.44000
N400        N  0.82819494  0.09179384  0.17442816    -0.44000
C401        C  0.81753702  0.82513895  0.11201905    -0.00400
C402        C  0.84079591  0.79607818  0.10482815    -0.12200
C403        C  0.85993727  0.77696839  0.12787547     0.01900
C404        C  0.85559558  0.78653663  0.15883646    -0.00500
C405        C  0.82849657  0.81192677  0.16614684    -0.12200
C406        C  0.80972181  0.83140412  0.14308373     0.01800
H407        H  0.84690609  0.79064830  0.08107488     0.14700
H408        H  0.82455984  0.81930218  0.18988059     0.14700
C409        C  0.78421404  0.85924829  0.15194889     0.36400
C410        C  0.88587049  0.74936719  0.11915700     0.36300
N411        N  0.76375285  0.88141926  0.15936368    -0.44000
N412        N  0.90669671  0.72724444  0.11229670    -0.44000
C413        C  0.89613447  0.86647996  0.26095559    -0.00400
C414        C  0.86189800  0.86353096  0.27447071    -0.12200
C415        C  0.84147520  0.89452252  0.28144150     0.01900
C416        C  0.85548816  0.92959580  0.27515671    -0.00500
C417        C  0.89058086  0.93251158  0.26294936    -0.12200
C418        C  0.91084081  0.90139205  0.25571753     0.01800
H419        H  0.85039169  0.83680743  0.27861556     0.14700
H420        H  0.90205953  0.95918608  0.25858480     0.14700
C421        C  0.94685898  0.90601762  0.24353475     0.36400
C422        C  0.80649557  0.88925437  0.29538676     0.36300
N423        N  0.97577378  0.90971467  0.23389237    -0.44000
N424        N  0.77844706  0.88498958  0.30650005    -0.44000
C425        C  0.06657586  0.81335702  0.23888264    -0.00400
C426        C  0.06247457  0.84508710  0.25629549    -0.12200
C427        C  0.09249767  0.86550614  0.26573645     0.01900
C428        C  0.12793160  0.85455302  0.25750354    -0.00500
C429        C  0.13203604  0.82353061  0.23905661    -0.12200
C430        C  0.10179238  0.80279435  0.22987166     0.01800
H431        H  0.03556732  0.85372835  0.26312772     0.14700
H432        H  0.15900589  0.81475319  0.23256082     0.14700
C433        C  0.10769148  0.77137590  0.21084120     0.36400
C434        C  0.08578017  0.89746881  0.28396473     0.36300
N435        N  0.11254567  0.74621068  0.19559839    -0.44000
N436        N  0.08026137  0.92290511  0.29872272    -0.44000
C437        C  0.90126709  0.85661646  0.01081386    -0.00400
C438        C  0.89901080  0.82260015  0.49612820    -0.12200
C439        C  0.92949144  0.80253335  0.48729867     0.01900
C440        C  0.96294518  0.81750597  0.99092757    -0.00500
C441        C  0.96639041  0.85312153  0.00245594    -0.12200
C442        C  0.93607668  0.87250862  0.01266731     0.01800
H443        H  0.87250706  0.80988571  0.49522120     0.14700
H444        H  0.99286605  0.86579040  0.00389573     0.14700
C445        C  0.94149489  0.90884124  0.02433380     0.36400
C446        C  0.92342746  0.76573741  0.47683498     0.36300
N447        N  0.94610814  0.93790110  0.03374560    -0.44000
N448        N  0.91832907  0.73628414  0.46849392    -0.44000
C449        C  0.17379159  0.77949390  0.40872701    -0.00400
C450        C  0.20289086  0.80272986  0.41604254    -0.12200
C451        C  0.22104538  0.82200725  0.39306472     0.01900
C452        C  0.21071709  0.81754226  0.36207116    -0.00500
C453        C  0.18565745  0.79007383  0.35461732    -0.12200
C454        C  0.16697254  0.77131715  0.37760922     0.01800
H455        H  0.20866849  0.80912914  0.43976403     0.14700
H456        H  0.17761802  0.78612769  0.33094229     0.14700
C457        C  0.13871237  0.74605582  0.36868676     0.36400
C458        C  0.24807103  0.84854852  0.40198035     0.36300
N459        N  0.11606658  0.72585017  0.36148057    -0.44000
N460        N  0.26968528  0.86983968  0.40918900    -0.44000
C461        C  0.05291662  0.73253141  0.08010284    -0.00400
C462        C  0.02859013  0.70446231  0.08794340    -0.12200
C463        C  0.01386865  0.70228674  0.11717867     0.01900
C464        C  0.02317472  0.72888215  0.13884822    -0.00500
C465        C  0.05018288  0.75468219  0.13187272    -0.12200
C466        C  0.06519243  0.75665116  0.10285059     0.01800
H467        H  0.01995080  0.68504998  0.07080625     0.14700
H468        H  0.05805560  0.77480811  0.14870208     0.14700
C469        C  0.09077032  0.78543955  0.09653265     0.36400
C470        C  0.98751512  0.67429836  0.12353040     0.36300
N471        N  0.11129156  0.80853279  0.09164517    -0.44000
N472        N  0.96652202  0.65168403  0.12853824    -0.44000
C473        C  0.97868264  0.72412066  0.32856470    -0.00400
C474        C  0.96347798  0.74861689  0.34911296    -0.12200
C475        C  0.97740506  0.75140858  0.37880748     0.01900
C476        C  0.00657818  0.72866291  0.38867140    -0.00500
C477        C  0.01929304  0.70153520  0.36914229    -0.12200
C478        C  0.00580784  0.69928300  0.33909320     0.01800
H479        H  0.94241139  0.76748457  0.34133180     0.14700
H480        H  0.04139305  0.68375063  0.37665216     0.14700
C481        C  0.02077642  0.67180383  0.31937500     0.36400
C482        C  0.96238850  0.77928902  0.39810597     0.36300
N483        N  0.03279876  0.64971893  0.30365080    -0.44000
N484        N  0.95028691  0.80203984  0.41309525    -0.44000
C485        C  0.17245981  0.93634799  0.02535442    -0.00400
C486        C  0.18605287  0.90192889  0.03372920    -0.12200
C487        C  0.16855720  0.87002463  0.02441523     0.01900
C488        C  0.13680334  0.87190338  0.00563610    -0.00500
C489        C  0.12402042  0.90634972  0.99607136    -0.12200
C490        C  0.14134622  0.93842860  0.00587324     0.01800
H491        H  0.21022895  0.89983905  0.04807280     0.14700
H492        H  0.09572543  0.90359163  0.49227521     0.14700
C493        C  0.11895121  0.96881641  0.50729325     0.36400
C494        C  0.18464207  0.83576118  0.03405490     0.36300
N495        N  0.10320081  0.99568997  0.50252238    -0.44000
N496        N  0.19746501  0.80833531  0.04188253    -0.44000
C497        C  0.12436900  0.11067818  0.00872588    -0.00400
C498        C  0.09100120  0.10295572  0.02263211    -0.12200
C499        C  0.05931199  0.12210636  0.01469400     0.01900
C500        C  0.06043832  0.14997401  0.99244750    -0.00500
C501        C  0.09524490  0.15771430  0.47741182    -0.12200
C502        C  0.12524988  0.13832605  0.98595416     0.01800
H503        H  0.08956355  0.08200292  0.04013252     0.14700
H504        H  0.09633445  0.17883139  0.46001176     0.14700
C505        C  0.16017956  0.14822296  0.47035854     0.36400
C506        C  0.02619385  0.11335151  0.03049222     0.36300
N507        N  0.18664544  0.15625800  0.45805693    -0.44000
N508        N  0.99966231  0.10634854  0.04311761    -0.44000
C509        C  0.25611982  0.01741940  0.44626253    -0.00400
C510        C  0.23204808  0.98842771  0.44146528    -0.12200
C511        C  0.23072818  0.96993680  0.41396059     0.01900
C512        C  0.25394839  0.98041945  0.38999241    -0.00500
C513        C  0.27825074  0.00953703  0.39466478    -0.12200
C514        C  0.27929082  0.02827259  0.42262661     0.01800
H515        H  0.21432981  0.97976449  0.45969125     0.14700
H516        H  0.29555117  0.01831592  0.37626963     0.14700
C517        C  0.30436752  0.05803612  0.42663160     0.36400
C518        C  0.20509648  0.94018273  0.41136460     0.36300
N519        N  0.32429222  0.08213975  0.42964838    -0.44000
N520        N  0.18421390  0.91670814  0.40952903    -0.44000
C521        C  0.25498578  0.97695505  0.13642606    -0.00400
C522        C  0.27986553  0.99221008  0.15713634    -0.12200
C523        C  0.28344750  0.97832314  0.18683144     0.01900
C524        C  0.26261812  0.94771270  0.19589002    -0.00500
C525        C  0.23969958  0.93093797  0.17436801    -0.12200
C526        C  0.23531135  0.94557267  0.14499259     0.01800
H527        H  0.29516779  0.01623612  0.15059663     0.14700
H528        H  0.22351019  0.90757016  0.18103666     0.14700
C529        C  0.20989379  0.92822634  0.12428003     0.36400
C530        C  0.30842533  0.99637552  0.20753745     0.36300
N531        N  0.18931685  0.91422881  0.10792453    -0.44000
N532        N  0.32865424  0.01073310  0.22399421    -0.44000
C533        C  0.90191345  0.10415752  0.25798594    -0.00400
C534        C  0.89886205  0.13496645  0.23887201    -0.12200
C535        C  0.92961867  0.15496390  0.23065419     0.01900
C536        C  0.96444179  0.14413253  0.24149711    -0.00500
C537        C  0.96763240  0.11284459  0.25997411    -0.12200
C538        C  0.93691565  0.09296369  0.26836172     0.01800
H539        H  0.87233441  0.14392852  0.23075403     0.14700
H540        H  0.99419842  0.10406536  0.26817829     0.14700
C541        C  0.94242906  0.06092088  0.28722213     0.36400
C542        C  0.92467688  0.18570530  0.21026294     0.36300
N543        N  0.94682192  0.03529146  0.30236889    -0.44000
N544        N  0.92084165  0.21029153  0.19385855    -0.44000
C545        C  0.05240195  0.23826427  0.32931284    -0.00400
C546        C  0.02283994  0.26137708  0.33591918    -0.12200
C547        C  0.00645709  0.26068340  0.36455858     0.01900
C548        C  0.01958085  0.23630452  0.38706480    -0.00500
C549        C  0.05083137  0.21536133  0.38130566    -0.12200
C550        C  0.06747524  0.21630243  0.35282610     0.01800
H551        H  0.01126205  0.27874643  0.31806340     0.14700
H552        H  0.06126411  0.19675741  0.39878693     0.14700
C553        C  0.09782380  0.19209240  0.34771008     0.36400
C554        C  0.97445166  0.28276725  0.36932775     0.36300
N555        N  0.12213442  0.17260454  0.34380321    -0.44000
N556        N  0.94876972  0.30046849  0.37305246    -0.44000
C557        C  0.01109138  0.22501876  0.13507199    -0.00400
C558        C  0.98303889  0.25076283  0.12994433    -0.12200
C559        C  0.96464789  0.25299798  0.10144265     0.01900
C560        C  0.97467727  0.22940888  0.07763486    -0.00500
C561        C  0.00245349  0.20382866  0.08295866    -0.12200
C562        C  0.02061775  0.20140744  0.11096863     0.01800
H563        H  0.97497200  0.26854554  0.14833445     0.14700
H564        H  0.01061256  0.18586939  0.06465690     0.14700
C565        C  0.04961512  0.17472806  0.11371405     0.36400
C566        C  0.93631798  0.27993045  0.09711782     0.36300
N567        N  0.07260463  0.15311939  0.11552404    -0.44000
N568        N  0.91352131  0.30156383  0.09403444    -0.44000
C569        C  0.17270934  0.17650860  0.16260364    -0.00400
C570        C  0.16609154  0.18847973  0.13248557    -0.12200
C571        C  0.18281335  0.17137059  0.10779296     0.01900
C572        C  0.20697154  0.14193176  0.11323945    -0.00500
C573        C  0.21707013  0.13329269  0.14350163    -0.12200
C574        C  0.19993023  0.14995447  0.16813590     0.01800
H575        H  0.14493424  0.20868826  0.12804730     0.14700
H576        H  0.23548711  0.11054556  0.14788573     0.14700
C577        C  0.20659401  0.13511654  0.19830173     0.36400
C578        C  0.17065342  0.18101218  0.07729539     0.36300
N579        N  0.21176849  0.12277467  0.22233195    -0.44000
N580        N  0.16064954  0.18868796  0.05292163    -0.44000
C581        C  0.17078404  0.02964349  0.28516711    -0.00400
C582        C  0.18450691  0.06315323  0.29556453    -0.12200
C583        C  0.16756758  0.09616501  0.28744641     0.01900
C584        C  0.13600022  0.09606463  0.26851296    -0.00500
C585        C  0.12158627  0.06243011  0.25908792    -0.12200
C586        C  0.13864302  0.02950370  0.26701474     0.01800
H587        H  0.20898058  0.06364687  0.30966047     0.14700
H588        H  0.09747419  0.06183952  0.24455581     0.14700
C589        C  0.12388772  0.99638751  0.25422900     0.36400
C590        C  0.18472749  0.12955311  0.29728722     0.36300
N591        N  0.11211653  0.97001556  0.24365855    -0.44000
N592        N  0.19867741  0.15623811  0.30509398    -0.44000
C593        C  0.16602163  0.58648418  0.03415546    -0.00400
C594        C  0.15836235  0.61667203  0.05211697    -0.12200
C595        C  0.13649865  0.64495356  0.04093684     0.01900
C596        C  0.12098635  0.64305138  0.01112637    -0.00500
C597        C  0.12539426  0.60776910  0.49238190    -0.12200
C598        C  0.14826816  0.57948245  0.50345589     0.01800
H599        H  0.17287927  0.62002187  0.07367723     0.14700
H600        H  0.11465521  0.60674551  0.46924790     0.14700
C601        C  0.15569101  0.54872291  0.48413255     0.36400
C602        C  0.13334512  0.67626497  0.06044313     0.36300
N603        N  0.16138356  0.52368853  0.46895713    -0.44000
N604        N  0.13273961  0.69976180  0.07792605    -0.44000
C605        C  0.40396201  0.82119207  0.26148322    -0.00400
C606        C  0.39512052  0.85040623  0.24202736    -0.12200
C607        C  0.37141719  0.87821424  0.25156917     0.01900
C608        C  0.35663911  0.87721093  0.28120889    -0.00500
C609        C  0.36911366  0.85047782  0.30161558    -0.12200
C610        C  0.39176421  0.82224038  0.29200379     0.01800
H611        H  0.40408959  0.84985509  0.21861006     0.14700
H612        H  0.35752981  0.84917692  0.32420315     0.14700
C613        C  0.39800174  0.79305119  0.31357697     0.36400
C614        C  0.35952749  0.90470426  0.22918798     0.36300
N615        N  0.40096161  0.77096007  0.33238187    -0.44000
N616        N  0.35074090  0.92537220  0.21047075    -0.44000
C617        C  0.35025847  0.67793082  0.16280615    -0.00400
C618        C  0.32232723  0.65373031  0.17070224    -0.12200
C619        C  0.30394725  0.63344719  0.14813202     0.01900
C620        C  0.31288897  0.63791650  0.11707309    -0.00500
C621        C  0.33677305  0.66593825  0.10902029    -0.12200
C622        C  0.35574049  0.68557944  0.13151485     0.01800
H623        H  0.31762926  0.64765412  0.19452201     0.14700
H624        H  0.34373512  0.66976117  0.08529113     0.14700
C625        C  0.38327603  0.71090829  0.12181111     0.36400
C626        C  0.27781045  0.60642660  0.15745971     0.36300
N627        N  0.40551052  0.73090600  0.11384096    -0.44000
N628        N  0.25680298  0.58479340  0.16484137    -0.44000
C629        C  0.17053207  0.37288848  0.27884354    -0.00400
C630        C  0.16146631  0.37517888  0.24751768    -0.12200
C631        C  0.13747862  0.34998064  0.23384698     0.01900
C632        C  0.12092958  0.32303924  0.25186307    -0.00500
C633        C  0.12735210  0.32309820  0.28358346    -0.12200
C634        C  0.15244703  0.34713261  0.29701245     0.01800
H635        H  0.17595406  0.39421433  0.23315608     0.14700
H636        H  0.11522825  0.30208531  0.29758558     0.14700
C637        C  0.16147432  0.34295821  0.32901973     0.36400
C638        C  0.13246122  0.35038923  0.20114279     0.36300
N639        N  0.16896056  0.33956057  0.35462047    -0.44000
N640        N  0.12845934  0.35062758  0.17490594    -0.44000
C641        C  0.38738302  0.59331055  0.26192251    -0.00400
C642        C  0.40335716  0.55926401  0.25658254    -0.12200
C643        C  0.38614741  0.52699841  0.26548152     0.01900
C644        C  0.35162809  0.52845324  0.27956567    -0.00500
C645        C  0.33558059  0.56266433  0.28452690    -0.12200
C646        C  0.35303987  0.59484583  0.27602369     0.01800
H647        H  0.42950793  0.55785300  0.24546066     0.14700
H648        H  0.30922528  0.56441299  0.29527550     0.14700
C649        C  0.33418866  0.62893009  0.28089461     0.36400
C650        C  0.40447408  0.49303803  0.25913216     0.36300
N651        N  0.31902404  0.65618221  0.28480021    -0.44000
N652        N  0.41949340  0.46601903  0.25400836    -0.44000
C653        C  0.26244682  0.46731125  0.13795358    -0.00400
C654        C  0.23200003  0.47530152  0.15562666    -0.12200
C655        C  0.22886985  0.46036541  0.18494515     0.01900
C656        C  0.25600703  0.43633163  0.19641729    -0.00500
C657        C  0.28424632  0.42539702  0.17755856    -0.12200
C658        C  0.28800360  0.44093482  0.14867326     0.01800
H659        H  0.21201232  0.49500418  0.14742824     0.14700
H660        H  0.30509831  0.40694330  0.18635351     0.14700
C661        C  0.31946951  0.43050611  0.13131826     0.36400
C662        C  0.19833606  0.47100536  0.20328224     0.36300
N663        N  0.34501657  0.42221461  0.11784530    -0.44000
N664        N  0.17382162  0.47947401  0.21795162    -0.44000
C665        C  0.27045192  0.48208211  0.38922584    -0.00400
C666        C  0.24735011  0.51215489  0.39396434    -0.12200
C667        C  0.24568336  0.52877107  0.42282151     0.01900
C668        C  0.26624364  0.51409633  0.44745946    -0.00500
C669        C  0.28908951  0.48420648  0.44252940    -0.12200
C670        C  0.29189179  0.46857681  0.41393888     0.01800
H671        H  0.23173987  0.52348537  0.37491868     0.14700
H672        H  0.30540949  0.47311688  0.46132455     0.14700
C673        C  0.31782217  0.43910147  0.41097888     0.36400
C674        C  0.22299770  0.56056652  0.42650898     0.36300
N675        N  0.33938350  0.41613983  0.40937001    -0.44000
N676        N  0.20497778  0.58625357  0.42925706    -0.44000
C677        C  0.35380095  0.08952602  0.03211002    -0.00400
C678        C  0.36809288  0.08592285  0.50208674    -0.12200
C679        C  0.39353966  0.11096762  0.49077516     0.01900
C680        C  0.40586839  0.13908131  0.00993445    -0.00500
C681        C  0.39641178  0.13899855  0.04089020    -0.12200
C682        C  0.37004820  0.11501196  0.05193170     0.01800
H683        H  0.35561852  0.06650687  0.48665700     0.14700
H684        H  0.40697542  0.16010098  0.05580957     0.14700
C685        C  0.35790322  0.11902848  0.08290725     0.36400
C686        C  0.40297907  0.10983936  0.45899536     0.36300
N687        N  0.34818127  0.12234691  0.10772345    -0.44000
N688        N  0.41056613  0.10895556  0.43349635    -0.44000
C689        C  0.32041767  0.32300211  0.36831510    -0.00400
C690        C  0.31104602  0.33050949  0.39861210    -0.12200
C691        C  0.32812047  0.31217452  0.42313922     0.01900
C692        C  0.35544408  0.28597545  0.41747483    -0.00500
C693        C  0.36174256  0.27564518  0.38720273    -0.12200
C694        C  0.34441445  0.29371314  0.36269856     0.01800
H695        H  0.29240544  0.35270357  0.40318820     0.14700
H696        H  0.38257239  0.25549575  0.38261317     0.14700
C697        C  0.35520920  0.28435303  0.33223939     0.36400
C698        C  0.31998738  0.32380144  0.45369158     0.36300
N699        N  0.36422151  0.27637774  0.30801134    -0.44000
N700        N  0.31315778  0.33322028  0.47809038    -0.44000
C701        C  0.34658435  0.42788903  0.03772863    -0.00400
C702        C  0.38341321  0.43059018  0.52364514    -0.12200
C703        C  0.40315080  0.39963682  0.51528546     0.01900
C704        C  0.38579063  0.36500927  0.02082405    -0.00500
C705        C  0.35249005  0.36184780  0.03583623    -0.12200
C706        C  0.33276609  0.39278174  0.04421352     0.01800
H707        H  0.39421958  0.45732172  0.51837975     0.14700
H708        H  0.34131743  0.33506513  0.04034994     0.14700
C709        C  0.29905705  0.38744580  0.06015863     0.36400
C710        C  0.43792829  0.40466591  0.50093786     0.36300
N711        N  0.27218072  0.38312783  0.07310428    -0.44000
N712        N  0.46585771  0.40858584  0.48953584    -0.44000
C713        C  0.84141230  0.37025086  0.01729793    -0.00400
C714        C  0.87691269  0.36969819  0.02979133    -0.12200
C715        C  0.90405532  0.34705701  0.01723540     0.01900
C716        C  0.89578367  0.32520612  0.99149093    -0.00500
C717        C  0.86195232  0.32985188  0.97693942    -0.12200
C718        C  0.83466145  0.35094497  0.98983365     0.01800
H719        H  0.88271830  0.38476585  0.05055374     0.14700
H720        H  0.85539866  0.31355624  0.95693687     0.14700
C721        C  0.79928384  0.34919846  0.97511072     0.36400
C722        C  0.93898130  0.34437243  0.03260323     0.36300
N723        N  0.77176831  0.34583537  0.96222148    -0.44000
N724        N  0.96705284  0.34225655  0.04486932    -0.44000
C725        C  0.55922288  0.32148184  0.50635188    -0.00400
C726        C  0.56225725  0.32762789  0.03720164    -0.12200
C727        C  0.59126892  0.34892844  0.04818306     0.01900
C728        C  0.61501559  0.36600346  0.02735703    -0.00500
C729        C  0.60935946  0.36261754  0.49647483    -0.12200
C730        C  0.57989370  0.34206625  0.48574353     0.01800
H731        H  0.54457246  0.31394882  0.05318046     0.14700
H732        H  0.62565387  0.37757677  0.48029676     0.14700
C733        C  0.57147712  0.34257477  0.45346750     0.36400
C734        C  0.59634841  0.35191662  0.08080988     0.36300
N735        N  0.56482895  0.34358642  0.42759094    -0.44000
N736        N  0.60017286  0.35453148  0.10696424    -0.44000
C737        C  0.67128580  0.08636571  0.27651773    -0.00400
C738        C  0.66207957  0.11187526  0.29866708    -0.12200
C739        C  0.63756121  0.14000755  0.29192228     0.01900
C740        C  0.62127049  0.14264099  0.26251298    -0.00500
C741        C  0.62693541  0.11457668  0.24156084    -0.12200
C742        C  0.65186944  0.08638715  0.24838351     0.01800
H743        H  0.67697320  0.11203309  0.32025869     0.14700
H744        H  0.61445086  0.11637500  0.21901697     0.14700
C745        C  0.66008431  0.06040330  0.22487541     0.36400
C746        C  0.63247654  0.16747018  0.31495601     0.36300
N747        N  0.66635675  0.03966696  0.20586043    -0.44000
N748        N  0.62947279  0.18870630  0.33418077    -0.44000
C749        C  0.46166918  0.31930929  0.24723516    -0.00400
C750        C  0.42777125  0.30399808  0.23957273    -0.12200
C751        C  0.39531290  0.32166962  0.24689293     0.01900
C752        C  0.39651435  0.35522752  0.26254325    -0.00500
C753        C  0.43043324  0.37044653  0.27022420    -0.12200
C754        C  0.46282121  0.35282855  0.26289667     0.01800
H755        H  0.42660114  0.27807253  0.22785221     0.14700
H756        H  0.43168749  0.39577881  0.28281636     0.14700
C757        C  0.49660585  0.36847121  0.27382029     0.36400
C758        C  0.36139173  0.30349218  0.23986373     0.36300
N759        N  0.52359767  0.38079648  0.28292084    -0.44000
N760        N  0.33418235  0.28882091  0.23459427    -0.44000
C761        C  0.55079794  0.23435495  0.34020588    -0.00400
C762        C  0.52379200  0.20915559  0.34855173    -0.12200
C763        C  0.51012638  0.20812938  0.37823415     0.01900
C764        C  0.52315526  0.23304211  0.40008034    -0.00500
C765        C  0.55186044  0.25637733  0.39236012    -0.12200
C766        C  0.56585366  0.25724117  0.36285295     0.01800
H767        H  0.51245646  0.19078616  0.33146148     0.14700
H768        H  0.56248694  0.27529203  0.40940249     0.14700
C769        C  0.59360884  0.28371344  0.35600296     0.36400
C770        C  0.48122955  0.18299796  0.38510739     0.36300
N771        N  0.61583306  0.30497060  0.35058785    -0.44000
N772        N  0.45815920  0.16270955  0.39058045    -0.44000
C773        C  0.49963334  0.23053063  0.14900197    -0.00400
C774        C  0.50797970  0.20064340  0.13054686    -0.12200
C775        C  0.49231237  0.19773798  0.10123908     0.01900
C776        C  0.46754768  0.22467323  0.09048395    -0.00500
C777        C  0.45604725  0.25190803  0.11023144    -0.12200
C778        C  0.47206236  0.25532522  0.13914826     0.01800
H779        H  0.52848772  0.18111956  0.13806847     0.14700
H780        H  0.43686058  0.27245604  0.10210515     0.14700
C781        C  0.46112572  0.28607480  0.15732541     0.36400
C782        C  0.50285237  0.16769073  0.08209860     0.36300
N783        N  0.45235947  0.31121090  0.17127471    -0.44000
N784        N  0.51103859  0.14361175  0.06666254    -0.44000
C785        C  0.67144737  0.28710515  0.17018051    -0.00400
C786        C  0.66500927  0.27716139  0.13962547    -0.12200
C787        C  0.68219956  0.29531212  0.11560253     0.01900
C788        C  0.70626538  0.32433673  0.12203594    -0.00500
C789        C  0.71654578  0.33061126  0.15262323    -0.12200
C790        C  0.69955971  0.31223478  0.17664837     0.01800
H791        H  0.64379077  0.25746770  0.13434616     0.14700
H792        H  0.73560123  0.35240474  0.15790753     0.14700
C793        C  0.70853966  0.32301192  0.20747413     0.36400
C794        C  0.67101979  0.28662811  0.08477142     0.36300
N795        N  0.71615412  0.33179961  0.23206093    -0.44000
N796        N  0.66195624  0.27963440  0.06009152    -0.44000
C797        C  0.85422326  0.59457917  0.28797022    -0.00400
C798        C  0.85614803  0.63078078  0.29776537    -0.12200
C799        C  0.87735579  0.65638460  0.28282947     0.01900
C800        C  0.90138572  0.64560414  0.25948626    -0.00500
C801        C  0.90377079  0.60820651  0.25257151    -0.12200
C802        C  0.87979960  0.58275044  0.26612791     0.01800
H803        H  0.83748907  0.64032498  0.31498575     0.14700
H804        H  0.92225547  0.59931936  0.23504700     0.14700
C805        C  0.88042841  0.54548454  0.25581655     0.36400
C806        C  0.87040689  0.69400869  0.29044065     0.36300
N807        N  0.88109649  0.51555099  0.24762384    -0.44000
N808        N  0.86306247  0.72366332  0.29691169    -0.44000
C809        C  0.67494215  0.43411632  0.28360143    -0.00400
C810        C  0.64202606  0.43809146  0.26696130    -0.12200
C811        C  0.62168892  0.40771860  0.25787540     0.01900
C812        C  0.63359209  0.37243001  0.26634600    -0.00500
C813        C  0.66611015  0.36848832  0.28339391    -0.12200
C814        C  0.68717264  0.39868851  0.29145746     0.01800
H815        H  0.63234894  0.46502757  0.26060127     0.14700
H816        H  0.67587717  0.34151479  0.28956002     0.14700
C817        C  0.72107542  0.39215772  0.30775453     0.36400
C818        C  0.58865422  0.41376288  0.24022420     0.36300
N819        N  0.74839164  0.38666159  0.32051543    -0.44000
N820        N  0.56229517  0.41883761  0.22598284    -0.44000
C821        C  0.62763596  0.60767170  0.25976184    -0.00400
C822        C  0.59394375  0.59070478  0.26394904    -0.12200
C823        C  0.56131924  0.60809126  0.25556604     0.01900
C824        C  0.56187483  0.64342051  0.24232260    -0.00500
C825        C  0.59574727  0.66014866  0.23761743    -0.12200
C826        C  0.62841410  0.64276909  0.24629179     0.01800
H827        H  0.59303240  0.56397231  0.27460731     0.14700
H828        H  0.59676256  0.68720796  0.22759450     0.14700
C829        C  0.66200385  0.66270714  0.24312567     0.36400
C830        C  0.52780357  0.58960691  0.26260391     0.36300
N831        N  0.68887294  0.67879861  0.24079648    -0.44000
N832        N  0.50101267  0.57478846  0.26841337    -0.44000
C833        C  0.77167349  0.52260242  0.19992247    -0.00400
C834        C  0.79125889  0.49027113  0.19383519    -0.12200
C835        C  0.79024893  0.47416177  0.16488180     0.01900
C836        C  0.76968792  0.49062994  0.14125141    -0.00500
C837        C  0.75270362  0.52438634  0.14653982    -0.12200
C838        C  0.75370272  0.54060491  0.17543658     0.01800
H839        H  0.80562956  0.47621882  0.21230629     0.14700
H840        H  0.73638314  0.53693993  0.12843360     0.14700
C841        C  0.73313713  0.57372542  0.17982339     0.36400
C842        C  0.80719838  0.43896585  0.16084730     0.36300
N843        N  0.71660316  0.60025989  0.18329528    -0.44000
N844        N  0.82056040  0.41065368  0.15761472    -0.44000
C845        C  0.75544537  0.47609840  0.39119559    -0.00400
C846        C  0.73089028  0.44831835  0.39900641    -0.12200
C847        C  0.73094343  0.43295601  0.42833874     0.01900
C848        C  0.75537348  0.44607882  0.45082244    -0.00500
C849        C  0.78139679  0.47231481  0.44242291    -0.12200
C850        C  0.78192748  0.48698001  0.41281378     0.01800
H851        H  0.71086388  0.43932569  0.38234852     0.14700
H852        H  0.80081931  0.48206369  0.45925835     0.14700
C853        C  0.80849083  0.51456505  0.40582389     0.36400
C854        C  0.70422367  0.40542346  0.43504092     0.36300
N855        N  0.82988307  0.53659479  0.40022528    -0.44000
N856        N  0.68286755  0.38319754  0.44015595    -0.44000
C857        C  0.61423514  0.82627562  0.99861513    -0.00400
C858        C  0.63426826  0.84336694  0.47888905    -0.12200
C859        C  0.66656844  0.86293456  0.98450578     0.01900
C860        C  0.67139416  0.87475598  0.01500713    -0.00500
C861        C  0.64527019  0.86476047  0.03644591    -0.12200
C862        C  0.61665454  0.84092725  0.02843412     0.01800
H863        H  0.62961236  0.83571852  0.45525610     0.14700
H864        H  0.64863393  0.87349007  0.05993586     0.14700
C865        C  0.59220451  0.82960161  0.05200640     0.36400
C866        C  0.68211125  0.88344359  0.46131203     0.36300
N867        N  0.57280354  0.82141685  0.07136880    -0.44000
N868        N  0.69707566  0.89487523  0.44035712    -0.44000
C869        C  0.45975079  0.64160693  0.49865186    -0.00400
C870        C  0.46303638  0.60696363  0.51245103    -0.12200
C871        C  0.43225153  0.58707920  0.52093570     0.01900
C872        C  0.39666084  0.60106157  0.01635655    -0.00500
C873        C  0.39299721  0.63479823  0.00133211    -0.12200
C874        C  0.42349759  0.65512843  0.99306967     0.01800
H875        H  0.48980942  0.59541330  0.51697920     0.14700
H876        H  0.36605233  0.64598437  0.99683192     0.14700
C877        C  0.41719769  0.68961853  0.97780511     0.36400
C878        C  0.43756458  0.55137361  0.53438157     0.36300
N879        N  0.41201654  0.71717096  0.96547501    -0.44000
N880        N  0.44183263  0.52271084  0.54503928    -0.44000
C881        C  0.54847100  0.73645409  0.08579390    -0.00400
C882        C  0.52023540  0.76086704  0.09327539    -0.12200
C883        C  0.50486593  0.76071765  0.12231055     0.01900
C884        C  0.51735809  0.73525015  0.14415878    -0.00500
C885        C  0.54702833  0.71252490  0.13735374    -0.12200
C886        C  0.56257751  0.71281558  0.10847823     0.01800
H887        H  0.50897269  0.77904087  0.07585414     0.14700
H888        H  0.55663682  0.69271023  0.15420747     0.14700
C889        C  0.58985133  0.68567601  0.10180789     0.36400
C890        C  0.47448534  0.78462181  0.12822294     0.36300
N891        N  0.61142751  0.66363498  0.09648428    -0.44000
N892        N  0.45010437  0.80376453  0.13290914    -0.44000
C893        C  0.50024207  0.72461480  0.39465683    -0.00400
C894        C  0.51247753  0.75198265  0.37500683    -0.12200
C895        C  0.50007988  0.75348117  0.34466359     0.01900
C896        C  0.47417537  0.72787364  0.33395935    -0.00500
C897        C  0.45971471  0.70253919  0.35429023    -0.12200
C898        C  0.47285563  0.70028940  0.38429565     0.01800
H899        H  0.53337684  0.77070775  0.38276606     0.14700
H900        H  0.43968570  0.68304141  0.34623150     0.14700
C901        C  0.45871997  0.67163530  0.40342628     0.36400
C902        C  0.51492868  0.78105308  0.32482572     0.36300
N903        N  0.44740171  0.64821261  0.41824851    -0.44000
N904        N  0.52692327  0.80301535  0.30886562    -0.44000
C905        C  0.66541342  0.67859862  0.41460514    -0.00400
C906        C  0.69515689  0.65583104  0.42163377    -0.12200
C907        C  0.71351672  0.63724411  0.39850910     0.01900
C908        C  0.70279065  0.64190505  0.36759017    -0.00500
C909        C  0.67637757  0.66848321  0.36035175    -0.12200
C910        C  0.65751445  0.68659494  0.38353848     0.01800
H911        H  0.70162836  0.64951068  0.44530272     0.14700
H912        H  0.66792548  0.67250291  0.33675425     0.14700
C913        C  0.62850395  0.71149521  0.37495292     0.36400
C914        C  0.74157524  0.61146651  0.40726926     0.36300
N915        N  0.60531860  0.73150859  0.36808067    -0.44000
N916        N  0.76404750  0.59084955  0.41447917    -0.44000
C917        C  0.63429382  0.59707208  0.02210904    -0.00400
C918        C  0.66731659  0.60102826  0.03840237    -0.12200
C919        C  0.68729642  0.57054716  0.04848379     0.01900
C920        C  0.67393589  0.53514390  0.04267536    -0.00500
C921        C  0.64304698  0.53034524  0.52710655    -0.12200
C922        C  0.62309969  0.56060755  0.51671137     0.01800
H923        H  0.67811388  0.62804893  0.04259082     0.14700
H924        H  0.63207346  0.50332716  0.52323418     0.14700
C925        C  0.58797675  0.55442275  0.50241184     0.36400
C926        C  0.72101744  0.57660746  0.06504047     0.36300
N927        N  0.55977073  0.54951032  0.49105521    -0.44000
N928        N  0.74806436  0.58173679  0.07820424    -0.44000
Fe929      Fe  0.53017440  0.73837876  0.98842660     1.65800
Fe930      Fe  0.56315143  0.66072764  0.95985164     1.73200
Fe931      Fe  0.61838351  0.71062580  0.50505451     1.54400
O932        O  0.62156516  0.76358624  0.49089127    -0.81900
O933        O  0.59895750  0.62768957  0.98419456    -0.80200
O934        O  0.56344462  0.78499506  0.99317599    -0.84400
O935        O  0.53263036  0.73218048  0.53424635    -0.79200
O936        O  0.64623858  0.69522706  0.96573765    -0.81000
O937        O  0.52166356  0.64385260  0.98711463    -0.83800
C938        C  0.55876617  0.73015773  0.55337463     0.97000
C939        C  0.59779013  0.78996362  0.99310222     1.04400
O940        O  0.57038442  0.70379693  0.98465552    -1.12700
O941        O  0.52617175  0.68571698  0.93085142    -0.75200
O942        O  0.52592912  0.74485296  0.94150044    -0.78700
O943        O  0.59208540  0.72546699  0.54578914    -0.79400
C944        C  0.51806916  0.71835527  0.92402246     0.95900
O945        O  0.49235581  0.69622941  0.48665923    -0.77300
O946        O  0.60409607  0.67668426  0.93177190    -0.82500
C947        C  0.61816021  0.62889354  0.50871955     0.98500
C948        C  0.63664702  0.68522808  0.93873790     1.04400
O949        O  0.62196942  0.65880342  0.52246588    -0.78200
C950        C  0.49247363  0.66178888  0.99095790     1.02700
Fe951      Fe  0.76901246  0.50667824  0.79804264     1.65800
Fe952      Fe  0.69008149  0.53848784  0.82500894     1.73200
Fe953      Fe  0.73958971  0.59179384  0.78034535     1.54400
O954        O  0.78953983  0.59579368  0.80051172    -0.81900
O955        O  0.65676664  0.57233804  0.79851684    -0.80200
O956        O  0.81432011  0.54184429  0.79289409    -0.84400
O957        O  0.76385768  0.50607167  0.75197422    -0.79200
O958        O  0.71897734  0.62247832  0.81742371    -0.81000
O959        O  0.67531438  0.49555024  0.79828373    -0.83800
C960        C  0.76490792  0.53225032  0.73305600     0.97000
C961        C  0.81703129  0.57641202  0.79468771     1.04400
O962        O  0.73279173  0.54568108  0.80072287    -1.12700
O963        O  0.71639126  0.50339230  0.85513618    -0.75200
O964        O  0.77555018  0.50448344  0.84494575    -0.78700
O965        O  0.76034226  0.56561106  0.74098471    -0.79400
C966        C  0.74930438  0.49615692  0.86218634     0.95900
O967        O  0.72854681  0.46613226  0.79958863    -0.77300
O968        O  0.70394161  0.58126367  0.85267277    -0.82500
C969        C  0.65919070  0.58850583  0.77292859     0.98500
C970        C  0.70955790  0.61401121  0.84459542     1.04400
O971        O  0.68923557  0.59151177  0.75943429    -0.78200
C972        C  0.69403488  0.46672550  0.79509970     1.02700
Fe973      Fe  0.53552878  0.22339849  0.74267662     1.65800
Fe974      Fe  0.56729866  0.29950859  0.70934231     1.73200
Fe975      Fe  0.62036619  0.25530387  0.76020265     1.54400
O976        O  0.59369334  0.24200657  0.80080154    -0.81900
O977        O  0.61053859  0.28279544  0.68390481    -0.80200
O978        O  0.53538029  0.23102621  0.78878690    -0.84400
O979        O  0.57052061  0.17880282  0.74975828    -0.79200
O980        O  0.61914297  0.30825352  0.77448258    -0.81000
O981        O  0.53223437  0.27097180  0.68116792    -0.83800
C982        C  0.60490334  0.17514957  0.75258330     0.97000
C983        C  0.56083690  0.23540545  0.80827621     1.04400
O984        O  0.57472733  0.25888559  0.73740772    -1.12700
O985        O  0.52418834  0.31701649  0.73434664    -0.75200
O986        O  0.49538067  0.26380395  0.73885056    -0.78700
O987        O  0.62685210  0.20145505  0.74983288    -0.79400
C988        C  0.49608534  0.29852349  0.74055797     0.95900
O989        O  0.53150070  0.21317593  0.69627276    -0.77300
O990        O  0.60079959  0.33612771  0.73222982    -0.82500
C991        C  0.64312585  0.27798299  0.69335684     0.98500
C992        C  0.61642753  0.33658789  0.75818351     1.04400
O993        O  0.65102453  0.26988418  0.72124924    -0.78200
C994        C  0.52303994  0.23805973  0.67714697     1.02700
Fe995      Fe  0.76991901  0.45825092  0.54850906     1.65800
Fe996      Fe  0.69498188  0.42929007  0.58415182     1.73200
Fe997      Fe  0.73259047  0.37582647  0.53221216     1.54400
O998        O  0.74206199  0.40413729  0.99074843    -0.81900
O999        O  0.71242623  0.38530239  0.60926938    -0.80200
O1000       O  0.75554005  0.46178863  0.00226088    -0.84400
O1001       O  0.81198311  0.42082269  0.53838211    -0.79200
O1002       O  0.67905314  0.38104914  0.51931184    -0.81000
O1003       O  0.72668228  0.46340273  0.61082254    -0.83800
C1004       C  0.81277979  0.38626607  0.53492051     0.97000
C1005       C  0.74991820  0.43671971  0.98302564     1.04400
O1006       O  0.73300325  0.42080669  0.55487834    -1.12700
O1007       O  0.67753568  0.47305370  0.55887856    -0.75200
O1008       O  0.73138510  0.50042039  0.55386389    -0.78700
O1009       O  0.78627912  0.36619519  0.54204071    -0.79400
C1010       C  0.69653275  0.50080695  0.55224032     0.95900
O1011       O  0.78360978  0.45962407  0.59475445    -0.77300
O1012       O  0.65566039  0.39647753  0.56336678    -0.82500
C1013       C  0.71448729  0.35258877  0.59991101     0.98500
C1014       C  0.65258438  0.38206023  0.53726496     1.04400
O1015       O  0.71896049  0.34489726  0.57163690    -0.78200
C1016       C  0.76045012  0.46935300  0.61442693     1.02700
Fe1017     Fe  0.48911787  0.22453618  0.99429225     1.65800
Fe1018     Fe  0.45423564  0.29948324  0.96046579     1.73200
Fe1019     Fe  0.40451011  0.25008130  0.50706842     1.54400
O1020       O  0.40133852  0.19784854  0.49113976    -0.81900
O1021       O  0.41857690  0.33287997  0.98359648    -0.80200
O1022       O  0.45587367  0.17831521  0.99914355    -0.84400
O1023       O  0.48911693  0.22887398  0.54023246    -0.79200
O1024       O  0.37148401  0.26773171  0.96840528    -0.81000
O1025       O  0.49573989  0.31919857  0.98700086    -0.83800
C1026       C  0.46197109  0.22809450  0.55769271     0.97000
C1027       C  0.42155815  0.17317459  0.99807033     1.04400
O1028       O  0.44836218  0.25808763  0.98760699    -1.12700
O1029       O  0.49133803  0.27349676  0.93282921    -0.75200
O1030       O  0.49504323  0.21564881  0.94783514    -0.78700
O1031       O  0.42912386  0.23237954  0.54821274    -0.79400
C1032       C  0.50123099  0.24077209  0.92854399     0.95900
O1033       O  0.53019297  0.26543834  0.49407385    -0.77300
O1034       O  0.41263044  0.28107839  0.93315550    -0.82500
C1035       C  0.40661954  0.33112308  0.50987912     0.98500
C1036       C  0.37992942  0.27584636  0.94103751     1.04400
O1037       O  0.40382586  0.30169489  0.52482846    -0.78200
C1038       C  0.52437460  0.30218110  0.99515194     1.02700
Fe1039     Fe  0.25523044  0.45561528  0.79412643     1.65800
Fe1040     Fe  0.33203203  0.42181700  0.82532323     1.73200
Fe1041     Fe  0.28255811  0.36903821  0.77864755     1.54400
O1042       O  0.23010495  0.36512485  0.79328735    -0.81900
O1043       O  0.36551158  0.38675550  0.80209874    -0.80200
O1044       O  0.20943425  0.42196353  0.78806124    -0.84400
O1045       O  0.26094480  0.45466943  0.74809167    -0.79200
O1046       O  0.29950245  0.33872262  0.81740660    -0.81000
O1047       O  0.34931739  0.46372240  0.79843885    -0.83800
C1048       C  0.26144352  0.42819241  0.72963823     0.97000
C1049       C  0.20452578  0.38758034  0.78802817     1.04400
O1050       O  0.28960376  0.41523404  0.79921771    -1.12700
O1051       O  0.30655418  0.45812154  0.85345584    -0.75200
O1052       O  0.24772634  0.45967471  0.84092824    -0.78700
O1053       O  0.26587938  0.39500751  0.73799113    -0.79400
C1054       C  0.27378852  0.46512715  0.85983766     0.95900
O1055       O  0.29699726  0.49450267  0.79604564    -0.77300
O1056       O  0.31556306  0.37978210  0.85264708    -0.82500
C1057       C  0.36376566  0.37066806  0.77667469     0.98500
C1058       C  0.30887524  0.34721085  0.84469800     1.04400
O1059       O  0.33426631  0.36828987  0.76160219    -0.78200
C1060       C  0.33149911  0.49268562  0.79271314     1.02700
Fe1061     Fe  0.48630486  0.73531941  0.73638258     1.65800
Fe1062     Fe  0.45279064  0.65985376  0.70374340     1.73200
Fe1063     Fe  0.40125851  0.70557018  0.75335456     1.54400
O1064       O  0.43007314  0.71788068  0.79358855    -0.81900
O1065       O  0.40871009  0.67628822  0.67826232    -0.80200
O1066       O  0.48879775  0.72523347  0.78188917    -0.84400
O1067       O  0.45254344  0.78025066  0.74605542    -0.79200
O1068       O  0.40130404  0.65265759  0.76790608    -0.81000
O1069       O  0.48639020  0.68896822  0.67534784    -0.83800
C1070       C  0.41833740  0.78492240  0.74871225     0.97000
C1071       C  0.46351469  0.72281449  0.80108332     1.04400
O1072       O  0.44632224  0.70065664  0.73114462    -1.12700
O1073       O  0.49696703  0.64223839  0.72858187    -0.75200
O1074       O  0.52649553  0.69500391  0.73090866    -0.78700
O1075       O  0.39565058  0.75986730  0.74301540    -0.79400
C1076       C  0.52582764  0.66030677  0.73340443     0.95900
O1077       O  0.48690323  0.74689354  0.69011178    -0.77300
O1078       O  0.42038412  0.62329816  0.72722175    -0.82500
C1079       C  0.37653168  0.68321755  0.68680619     0.98500
C1080       C  0.40403242  0.62395081  0.75243182     1.04400
O1081       O  0.36905611  0.69205209  0.71432643    -0.78200
C1082       C  0.49450354  0.72216690  0.67097339     1.02700
Fe1083     Fe  0.25368160  0.49990408  0.54466217     1.65800
Fe1084     Fe  0.33039237  0.53338477  0.57613924     1.73200
Fe1085     Fe  0.28152830  0.58615130  0.52739242     1.54400
O1086       O  0.26679254  0.56039000  0.98669263    -0.81900
O1087       O  0.31415780  0.57645714  0.60226795    -0.80200
O1088       O  0.25804997  0.50199397  0.99963791    -0.84400
O1089       O  0.20750144  0.53293297  0.53899093    -0.79200
O1090       O  0.33412177  0.58819635  0.51215857    -0.81000
O1091       O  0.30393940  0.49825044  0.60510276    -0.83800
C1092       C  0.20243102  0.56719276  0.53779028     0.97000
C1093       C  0.26220966  0.52686985  0.97988529     1.04400
O1094       O  0.28820786  0.54013738  0.54931100    -1.12700
O1095       O  0.34771187  0.49010220  0.55084165    -0.75200
O1096       O  0.29497698  0.46052699  0.54731791    -0.78700
O1097       O  0.22822712  0.58991281  0.53940927    -0.79400
C1098       C  0.32961256  0.46129017  0.54578019     0.95900
O1099       O  0.24562831  0.49567787  0.59114945    -0.77300
O1100       O  0.36508500  0.56695858  0.55215742    -0.82500
C1101       C  0.30535880  0.60860654  0.59396856     0.98500
C1102       C  0.36366032  0.58401812  0.52698867     1.04400
O1103       O  0.29566157  0.61671155  0.56653583    -0.78200
C1104       C  0.27144976  0.48853117  0.60990056     1.02700
Fe1105     Fe  0.03506419  0.23909413  0.73055177     1.65800
Fe1106     Fe  0.06839708  0.16122290  0.70303339     1.73200
Fe1107     Fe  0.12074003  0.21033686  0.75006973     1.54400
O1108       O  0.12557099  0.26273293  0.73442411    -0.81900
O1109       O  0.10272866  0.12740056  0.72806544    -0.80200
O1110       O  0.06908842  0.28447656  0.73691713    -0.84400
O1111       O  0.03450639  0.23377705  0.77697219    -0.79200
O1112       O  0.15151096  0.19297498  0.71227650    -0.81000
O1113       O  0.02613420  0.14534389  0.72931379    -0.83800
C1114       C  0.06021096  0.23225691  0.79667846     0.97000
C1115       C  0.10347947  0.28866255  0.73860075     1.04400
O1116       O  0.07503636  0.20392488  0.72805241    -1.12700
O1117       O  0.03275741  0.18675880  0.67323460    -0.75200
O1118       O  0.03239294  0.24594809  0.68326972    -0.78700
O1119       O  0.09360274  0.22728569  0.78964611    -0.79400
C1120       C  0.02626682  0.21938889  0.66528061     0.95900
O1121       O  0.99559191  0.19804343  0.72782456    -0.77300
O1122       O  0.11069942  0.17673117  0.67637633    -0.82500
C1123       C  0.11850307  0.12890948  0.75390053     0.98500
C1124       C  0.14315580  0.18349747  0.68492787     1.04400
O1125       O  0.12102337  0.15853615  0.76834158    -0.78200
C1126       C  0.99704344  0.16362199  0.73219198     1.02700
Fe1127     Fe  0.26767411  0.00617451  0.54335186     1.65800
Fe1128     Fe  0.19010927  0.03911078  0.57035553     1.73200
Fe1129     Fe  0.24012325  0.09194611  0.52433768     1.54400
O1130       O  0.29281982  0.09645765  0.53978042    -0.81900
O1131       O  0.15683052  0.07432316  0.54535643    -0.80200
O1132       O  0.31356604  0.03945449  0.53860183    -0.84400
O1133       O  0.26116531  0.00649964  0.99749482    -0.79200
O1134       O  0.22356218  0.12243445  0.56273069    -0.81000
O1135       O  0.17382652  0.99683691  0.54310414    -0.83800
C1136       C  0.25794456  0.03126866  0.97744434     0.97000
C1137       C  0.31867022  0.07372974  0.53816540     1.04400
O1138       O  0.23296701  0.04619181  0.54591354    -1.12700
O1139       O  0.21569779  0.00280828  0.60029153    -0.75200
O1140       O  0.27468470  0.00423565  0.58998697    -0.78700
O1141       O  0.25443238  0.06514271  0.98377773    -0.79400
C1142       C  0.24866525  0.99575482  0.60729301     0.95900
O1143       O  0.22637744  0.96659559  0.54467599    -0.77300
O1144       O  0.20571142  0.08137201  0.59756104    -0.82500
C1145       C  0.15882203  0.09135826  0.52020587     0.98500
C1146       C  0.21338219  0.11383866  0.58971392     1.04400
O1147       O  0.18838187  0.09330756  0.50601912    -0.78200
C1148       C  0.19214294  0.96795821  0.53889561     1.02700
Fe1149     Fe  0.03663904  0.72363422  0.98266256     1.65800
Fe1150     Fe  0.06679435  0.79993462  0.94860641     1.73200
Fe1151     Fe  0.12338483  0.75270294  0.49934577     1.54400
O1152       O  0.09573833  0.74213084  0.54008159    -0.81900
O1153       O  0.10948329  0.78302470  0.92266547    -0.80200
O1154       O  0.03688280  0.73291571  0.52810808    -0.84400
O1155       O  0.07169252  0.67936850  0.99135291    -0.79200
O1156       O  0.12594709  0.80609814  0.51251294    -0.81000
O1157       O  0.03128493  0.77055768  0.92135718    -0.83800
C1158       C  0.10583782  0.67635571  0.99633379     0.97000
C1159       C  0.06260368  0.73635609  0.54745425     1.04400
O1160       O  0.07531483  0.75948213  0.97679058    -1.12700
O1161       O  0.02417029  0.81711287  0.97448139    -0.75200
O1162       O  0.99609123  0.76359637  0.97857038    -0.78700
O1163       O  0.12783898  0.70222033  0.99161612    -0.68200
C1164       C  0.99627699  0.79827195  0.98081893     0.95900
O1165       O  0.03288474  0.71268048  0.93633208    -0.77300
O1166       O  0.10089588  0.83781539  0.96986433    -0.82500
C1167       C  0.14209296  0.77640058  0.93134987     0.98500
C1168       C  0.12164295  0.83506382  0.49722749     1.04400
O1169       O  0.15078636  0.76895033  0.95924561    -0.78200
C1170       C  0.02354814  0.73728502  0.91719120     1.02700
Fe1171     Fe  0.26815020  0.95857542  0.79374830     1.65800
Fe1172     Fe  0.19132467  0.92256545  0.82053261     1.73200
Fe1173     Fe  0.24240165  0.87235833  0.77398581     1.54400
O1174       O  0.25728296  0.90133683  0.73446767    -0.81900
O1175       O  0.20771355  0.87946675  0.84714968    -0.80200
O1176       O  0.26268029  0.96010372  0.74759646    -0.84400
O1177       O  0.31514846  0.92614645  0.78832025    -0.79200
O1178       O  0.19071045  0.86965830  0.75571377    -0.81000
O1179       O  0.21585916  0.95745258  0.85091219    -0.83800
C1180       C  0.32059148  0.89186794  0.78689821     0.97000
C1181       C  0.26146855  0.93511286  0.72776310     1.04400
O1182       O  0.23431463  0.91750380  0.79595455    -1.12700
O1183       O  0.17393298  0.96585267  0.79447956    -0.75200
O1184       O  0.22583522  0.99712866  0.79586654    -0.78700
O1185       O  0.29511038  0.86897452  0.78901935    -0.79400
C1186       C  0.19144276  0.99534510  0.79128017     0.95900
O1187       O  0.27485201  0.96029396  0.84089378    -0.77300
O1188       O  0.15886583  0.88825982  0.79501035    -0.82500
C1189       C  0.21636282  0.84743530  0.83901621     0.98500
C1190       C  0.16109043  0.87188109  0.76980949     1.04400
O1191       O  0.22694166  0.83996823  0.81196995    -0.78200
C1192       C  0.24826496  0.96502762  0.85876218     1.02700
Fe1193     Fe  0.99177037  0.71733275  0.73173229     1.65800
Fe1194     Fe  0.96221667  0.79609157  0.70013391     1.73200
Fe1195     Fe  0.90763520  0.75090247  0.74619238     1.54400
O1196       O  0.90243306  0.70003653  0.72845204    -0.81900
O1197       O  0.92985175  0.83220193  0.72402373    -0.80200
O1198       O  0.95475132  0.67375670  0.73997955    -0.84400
O1199       O  0.99288568  0.72477216  0.77770517    -0.79200
O1200       O  0.87769377  0.77039098  0.70780551    -0.81000
O1201       O  0.00525595  0.81027353  0.72687935    -0.83800
C1202       C  0.96643274  0.72645278  0.79586337     0.97000
C1203       C  0.91997993  0.67362953  0.73982015     1.04400
O1204       O  0.95388343  0.75488586  0.72643030    -1.12700
O1205       O  0.99616043  0.76727816  0.67236494    -0.75200
O1206       O  0.99396573  0.70846315  0.68495715    -0.78700
O1207       O  0.93362174  0.73241442  0.78687970    -0.79400
C1208       C  0.00313202  0.73410329  0.66692413     0.95900
O1209       O  0.03371357  0.75643074  0.72854652    -0.77300
O1210       O  0.91913367  0.78234564  0.67246104    -0.82500
C1211       C  0.91391687  0.83147781  0.74947520     0.98500
C1212       C  0.88632083  0.77840343  0.68040437     1.04400
O1213       O  0.90967554  0.80217375  0.76431482    -0.78200
C1214       C  0.03364169  0.79114173  0.73153552     1.02700
Fe1215     Fe  0.75759080  0.95944191  0.53157281     1.65800
Fe1216     Fe  0.83467364  0.92909575  0.56489630     1.73200
Fe1217     Fe  0.78716288  0.87291431  0.51887569     1.54400
O1218       O  0.73343581  0.86835467  0.53061765    -0.81900
O1219       O  0.87062613  0.89511541  0.54244095    -0.80200
O1220       O  0.71251614  0.92498534  0.52486573    -0.84400
O1221       O  0.76616379  0.95728190  0.98701098    -0.79200
O1222       O  0.80249028  0.84461888  0.55942302    -0.81000
O1223       O  0.85060978  0.97080341  0.53729465    -0.83800
C1224       C  0.76931925  0.93065021  0.96894813     0.97000
C1225       C  0.70767234  0.89063784  0.52529551     1.04400
O1226       O  0.79276735  0.91998532  0.53851063    -1.12700
O1227       O  0.80623829  0.96503320  0.59214936    -0.75200
O1228       O  0.74785803  0.96397051  0.57775725    -0.78700
O1229       O  0.77374530  0.89766525  0.97806239    -0.79400
C1230       C  0.77294896  0.97247761  0.59671733     0.95900
O1231       O  0.79756806  0.00026911  0.53450662    -0.77300
O1232       O  0.82027266  0.88711580  0.59306881    -0.82500
C1233       C  0.86915308  0.87661158  0.51814291     0.98500
C1234       C  0.81275141  0.85430853  0.58631085     1.04400
O1235       O  0.83959062  0.87126885  0.50379359    -0.78200
C1236       C  0.83209465  0.99929800  0.53172542     1.02700
Fe1237     Fe  0.98598336  0.24356445  0.98038726     1.65800
Fe1238     Fe  0.95602425  0.16543988  0.95025769     1.73200
Fe1239     Fe  0.90387715  0.21070303  0.49564584     1.54400
O1240       O  0.92926311  0.22906994  0.53644785    -0.81900
O1241       O  0.91296190  0.18009163  0.92293226    -0.80200
O1242       O  0.98820208  0.23464069  0.52518139    -0.84400
O1243       O  0.94963362  0.28767952  0.98598179    -0.79200
O1244       O  0.90765386  0.15915647  0.51345461    -0.81000
O1245       O  0.99069752  0.19341593  0.92160370    -0.83800
C1246       C  0.91497881  0.29027344  0.98542215     0.97000
C1247       C  0.96283628  0.23194876  0.54426835     1.04400
O1248       O  0.94775281  0.20708622  0.97602924    -1.12700
O1249       O  0.99887354  0.15024809  0.97737861    -0.75200
O1250       O  0.02751567  0.20380902  0.97828671    -0.78700
O1251       O  0.89465935  0.26278560  0.98173067    -0.79400
C1252       C  0.02704359  0.16926368  0.98239892     0.95900
O1253       O  0.98835641  0.25214136  0.93363783    -0.77300
O1254       O  0.92279101  0.12989565  0.97426894    -0.82500
C1255       C  0.88020323  0.18321464  0.93136344     0.98500
C1256       C  0.90908700  0.13042070  0.49780628     1.04400
O1257       O  0.87188040  0.19168847  0.95881107    -0.78200
C1258       C  0.99733069  0.22664488  0.91565551     1.02700
Fe1259     Fe  0.75941363  0.00027567  0.78162168     1.65800
Fe1260     Fe  0.83530365  0.03239043  0.81533695     1.73200
Fe1261     Fe  0.78734876  0.08709186  0.76801036     1.54400
O1262       O  0.77204808  0.06304960  0.72626966    -0.81900
O1263       O  0.81768545  0.07340083  0.84304442    -0.80200
O1264       O  0.76486287  0.00345933  0.73546852    -0.84400
O1265       O  0.71333869  0.03390173  0.77798326    -0.79200
O1266       O  0.83960773  0.08840073  0.75232990    -0.81000
O1267       O  0.80961566  0.99468865  0.84243566    -0.83800
C1268       C  0.70845534  0.06822098  0.77905587     0.97000
C1269       C  0.76678936  0.03034764  0.71727285     1.04400
O1270       O  0.79372073  0.04008467  0.78807267    -1.12700
O1271       O  0.85401707  0.99108777  0.78851736    -0.75200
O1272       O  0.80144600  0.96151060  0.78270506    -0.78700
O1273       O  0.73440006  0.09075637  0.78107677    -0.79400
C1274       C  0.83622009  0.96235703  0.78239080     0.95900
O1275       O  0.75143902  0.99391930  0.82798465    -0.77300
O1276       O  0.86895372  0.06862841  0.79349414    -0.82500
C1277       C  0.81169927  0.10638180  0.83540068     0.98500
C1278       C  0.86845313  0.08547528  0.76825895     1.04400
O1279       O  0.80295322  0.11573657  0.80799981    -0.78200
C1280       C  0.77676103  0.98636273  0.84706616     1.02700
C1281       C  0.81868605  0.13437132  0.85928394    -0.00400
C1282       C  0.81068815  0.12569866  0.88975637    -0.12200
C1283       C  0.82706702  0.14449099  0.91417865     0.01900
C1284       C  0.85192612  0.17288758  0.90834053    -0.00500
C1285       C  0.85677230  0.18409380  0.87793016    -0.12200
C1286       C  0.84055119  0.16519805  0.85349331     0.01800
H1287       H  0.79393585  0.10205139  0.89455683     0.14700
H1288       H  0.87607885  0.20566589  0.87311025     0.14700
C1289       C  0.85079139  0.17512352  0.82288824     0.36400
C1290       C  0.82146271  0.13086507  0.94468408     0.36300
N1291       N  0.85923144  0.18300247  0.79840793    -0.44000
N1292       N  0.81678338  0.11956995  0.96899004    -0.44000
C1293       C  0.89094089  0.09669799  0.50882134    -0.00400
C1294       C  0.89863491  0.06358948  0.49418032    -0.12200
C1295       C  0.87952544  0.03178405  0.50108483     0.01900
C1296       C  0.85177433  0.03260945  0.52292902    -0.00500
C1297       C  0.84405230  0.06535620  0.53781109    -0.12200
C1298       C  0.86353104  0.09716280  0.53133219     0.01800
H1299       H  0.91933798  0.06254696  0.47682493     0.14700
H1300       H  0.82305994  0.06593487  0.55496513     0.14700
C1301       C  0.85393894  0.12975527  0.54777658     0.36400
C1302       C  0.88781294  0.99899026  0.48441878     0.36300
N1303       N  0.84623885  0.15573690  0.56112287    -0.44000
N1304       N  0.89432570  0.97272676  0.47101827    -0.44000
C1305       C  0.76914979  0.96740058  0.87595543    -0.00400
C1306       C  0.79250356  0.93875577  0.88516809    -0.12200
C1307       C  0.79181603  0.92475944  0.91493776     0.01900
C1308       C  0.76728688  0.93950780  0.93600326    -0.00500
C1309       C  0.74258214  0.96679357  0.92619902    -0.12200
C1310       C  0.74341999  0.98087817  0.89648849     0.01800
H1311       H  0.81260938  0.92860678  0.86950098     0.14700
H1312       H  0.72367106  0.97831697  0.94223426     0.14700
C1313       C  0.72024955  0.01152444  0.88861204     0.36400
C1314       C  0.81879479  0.89789135  0.92397013     0.36300
N1315       N  0.70199157  0.03628133  0.88222846    -0.44000
N1316       N  0.84059400  0.87654384  0.93121361    -0.44000
C1317       C  0.76479086  0.99248857  0.62496907    -0.00400
C1318       C  0.78796185  0.02134787  0.63332751    -0.12200
C1319       C  0.78717465  0.03637240  0.66261004     0.01900
C1320       C  0.76313441  0.02202564  0.68432049    -0.00500
C1321       C  0.73819261  0.99491889  0.67519461    -0.12200
C1322       C  0.73848161  0.98046842  0.64566952     0.01800
H1323       H  0.80805301  0.03097971  0.61733351     0.14700
H1324       H  0.71947996  0.98377334  0.69165492     0.14700
C1325       C  0.71362891  0.95136653  0.63809694     0.36400
C1326       C  0.81361474  0.06395237  0.67046631     0.36300
N1327       N  0.69371873  0.92801466  0.63205981    -0.44000
N1328       N  0.83492330  0.08600335  0.67660274    -0.44000
C1329       C  0.82025618  0.82655094  0.61045267    -0.00400
C1330       C  0.84241745  0.79661157  0.60332244    -0.12200
C1331       C  0.86140409  0.77736054  0.62637524     0.01900
C1332       C  0.85783517  0.78761658  0.65723285    -0.00500
C1333       C  0.83190512  0.81416762  0.66455646    -0.12200
C1334       C  0.81344189  0.83387467  0.64152908     0.01800
H1335       H  0.84777378  0.79045514  0.57955585     0.14700
H1336       H  0.82872046  0.82215084  0.68824634     0.14700
C1337       C  0.78955722  0.86315590  0.65041705     0.36400
C1338       C  0.88606006  0.74858192  0.61775478     0.36300
N1339       N  0.77052374  0.88659258  0.65780481    -0.44000
N1340       N  0.90573686  0.72544044  0.61086797    -0.44000
C1341       C  0.89680949  0.86520653  0.76075691    -0.00400
C1342       C  0.86241712  0.86242748  0.77398758    -0.12200
C1343       C  0.84229068  0.89349327  0.78121285     0.01900
C1344       C  0.85672063  0.92853558  0.77543486    -0.00500
C1345       C  0.89198168  0.93126896  0.76351608    -0.12200
C1346       C  0.91198283  0.90003827  0.75605908     0.01800
H1347       H  0.85054967  0.83576985  0.77773522     0.14700
H1348       H  0.90378846  0.95788867  0.75953024     0.14700
C1349       C  0.94820085  0.90445982  0.74422592     0.36400
C1350       C  0.80713922  0.88826181  0.79486550     0.36300
N1351       N  0.97727397  0.90800267  0.73486972    -0.44000
N1352       N  0.77895946  0.88398374  0.80574361    -0.44000
C1353       C  0.06718880  0.81090290  0.74051718    -0.00400
C1354       C  0.06299993  0.84429843  0.75565563    -0.12200
C1355       C  0.09297487  0.86523653  0.76425279     0.01900
C1356       C  0.12845927  0.85299112  0.75770021    -0.00500
C1357       C  0.13281877  0.82000525  0.74187417    -0.12200
C1358       C  0.10260678  0.79882484  0.73339393     0.01800
H1359       H  0.03602885  0.85409578  0.76115420     0.14700
H1360       H  0.15992394  0.81018121  0.73689732     0.14700
C1361       C  0.10882126  0.76536481  0.71702853     0.36400
C1362       C  0.08619482  0.89929946  0.77960001     0.36300
N1363       N  0.11389736  0.73855006  0.70393686    -0.44000
N1364       N  0.08055133  0.92647582  0.79198357    -0.44000
C1365       C  0.90236555  0.85832381  0.50709293    -0.00400
C1366       C  0.89765175  0.82120037  0.99922041    -0.12200
C1367       C  0.92795292  0.80140893  0.98967655     0.01900
C1368       C  0.96454197  0.81854470  0.48866446    -0.00500
C1369       C  0.96767113  0.85471595  0.49908297    -0.12200
C1370       C  0.93712472  0.87445746  0.50851258     0.01800
H1371       H  0.87108095  0.80863480  0.99815941     0.14700
H1372       H  0.99408165  0.86754219  0.50034820     0.14700
C1373       C  0.94223821  0.91137581  0.51895905     0.36400
C1374       C  0.92179656  0.76490442  0.97853370     0.36300
N1375       N  0.94656146  0.94093950  0.52732117    -0.44000
N1376       N  0.91664418  0.73564213  0.96975302    -0.44000
C1377       C  0.17077392  0.78201724  0.90818103    -0.00400
C1378       C  0.20009082  0.80488017  0.91572024    -0.12200
C1379       C  0.21930735  0.82316351  0.89284794     0.01900
C1380       C  0.20972991  0.81816528  0.86177800    -0.00500
C1381       C  0.18436717  0.79101823  0.85422462    -0.12200
C1382       C  0.16467098  0.77317544  0.87709773     0.01800
H1383       H  0.20539610  0.81168760  0.93942938     0.14700
H1384       H  0.17691892  0.78669265  0.83046842     0.14700
C1385       C  0.13641429  0.74799270  0.86799768     0.36400
C1386       C  0.24657342  0.84942825  0.90184372     0.36300
N1387       N  0.11379154  0.72783222  0.86064394    -0.44000
N1388       N  0.26833589  0.87056325  0.90906443    -0.44000
C1389       C  0.05265006  0.73195883  0.57978237    -0.00400
C1390       C  0.02708747  0.70486050  0.58725418    -0.12200
C1391       C  0.01277912  0.70233814  0.61662282     0.01900
C1392       C  0.02383104  0.72754627  0.63890511    -0.00500
C1393       C  0.05157152  0.75263171  0.63207625    -0.12200
C1394       C  0.06599044  0.75507197  0.60283394     0.01800
H1395       H  0.01737646  0.68635119  0.56979198     0.14700
H1396       H  0.06049266  0.77191612  0.64925778     0.14700
C1397       C  0.09209979  0.78339045  0.59659707     0.36400
C1398       C  0.98516198  0.67546346  0.62258160     0.36300
N1399       N  0.11295786  0.80616567  0.59167734    -0.44000
N1400       N  0.96313074  0.65375240  0.62724650    -0.44000
C1401       C  0.97491479  0.72284875  0.82883842    -0.00400
C1402       C  0.96048427  0.74864038  0.84871787    -0.12200
C1403       C  0.97425962  0.75189654  0.87848960     0.01900
C1404       C  0.00271449  0.72857367  0.88901094    -0.00500
C1405       C  0.01434205  0.70018973  0.87022393    -0.12200
C1406       C  0.00086606  0.69732256  0.84019162     0.01800
H1407       H  0.94021488  0.76801427  0.84033796     0.14700
H1408       H  0.03570616  0.68182697  0.87823470     0.14700
C1409       C  0.01468734  0.66851203  0.82122913     0.36400
C1410       C  0.95974179  0.78057551  0.89728617     0.36300
N1411       N  0.02569987  0.64536550  0.80605262    -0.44000
N1412       N  0.94812379  0.80377790  0.91208124    -0.44000
C1413       C  0.17322285  0.93444140  0.52791405    -0.00400
C1414       C  0.19071375  0.90057835  0.53204341    -0.12200
C1415       C  0.17428549  0.86811979  0.52253354     0.01900
C1416       C  0.13948686  0.86888237  0.50824155    -0.00500
C1417       C  0.12217692  0.90264552  0.50348209    -0.12200
C1418       C  0.13846082  0.93520105  0.51327492     0.01800
H1419       H  0.21734951  0.89928453  0.54289416     0.14700
H1420       H  0.10027248  0.90826521  0.98121662     0.14700
C1421       C  0.12725949  0.97295531  0.99480402     0.36400
C1422       C  0.19461481  0.83460190  0.52665707     0.36300
N1423       N  0.11605473  0.00065427  0.98595274    -0.44000
N1424       N  0.21093225  0.80777490  0.52992747    -0.44000
C1425       C  0.12572474  0.11051286  0.50813016    -0.00400
C1426       C  0.09211588  0.10275285  0.52162389    -0.12200
C1427       C  0.06052817  0.12189527  0.51331681     0.01900
C1428       C  0.06195587  0.14968669  0.49102607    -0.00500
C1429       C  0.09346990  0.15786379  0.97834863    -0.12200
C1430       C  0.12696791  0.13831919  0.48548356     0.01800
H1431       H  0.09041065  0.08182280  0.53911155     0.14700
H1432       H  0.09427523  0.17889922  0.96085676     0.14700
C1433       C  0.15811181  0.14775540  0.97011778     0.36400
C1434       C  0.02720538  0.11334897  0.52888680     0.36300
N1435       N  0.18429450  0.15533222  0.95721403    -0.44000
N1436       N  0.00050654  0.10658264  0.54135480    -0.44000
C1437       C  0.25536467  0.01781617  0.94589954    -0.00400
C1438       C  0.23190472  0.98828844  0.94121317    -0.12200
C1439       C  0.23060512  0.96991058  0.91362480     0.01900
C1440       C  0.25324903  0.98099463  0.88946341    -0.00500
C1441       C  0.27689984  0.01068209  0.89400496    -0.12200
C1442       C  0.27792079  0.02931008  0.92203915     0.01800
H1443       H  0.21462766  0.97913520  0.95957501     0.14700
H1444       H  0.29375519  0.01992320  0.87547176     0.14700
C1445       C  0.30246627  0.05953638  0.92591683     0.36400
C1446       C  0.20571612  0.93953536  0.91120730     0.36300
N1447       N  0.32199996  0.08397177  0.92885050    -0.44000
N1448       N  0.18543357  0.91551379  0.90969083    -0.44000
C1449       C  0.25604588  0.97655329  0.63629281    -0.00400
C1450       C  0.28138897  0.99117238  0.65690181    -0.12200
C1451       C  0.28497826  0.97696703  0.68645859     0.01900
C1452       C  0.26349380  0.94681148  0.69549715    -0.00500
C1453       C  0.24012350  0.93057841  0.67401618    -0.12200
C1454       C  0.23594961  0.94538535  0.64469769     0.01800
H1455       H  0.29713963  0.01491321  0.65038205     0.14700
H1456       H  0.22354719  0.90746865  0.68064520     0.14700
C1457       C  0.21059179  0.92828255  0.62376219     0.36400
C1458       C  0.31085864  0.99406745  0.70696436     0.36300
N1459       N  0.19022693  0.91444208  0.60711847    -0.44000
N1460       N  0.33195341  0.00758874  0.72316364    -0.44000
C1461       C  0.90207982  0.10376514  0.75797354    -0.00400
C1462       C  0.89910623  0.13172481  0.73592389    -0.12200
C1463       C  0.92960017  0.15176266  0.72721306     0.01900
C1464       C  0.96389623  0.14385095  0.74058990    -0.00500
C1465       C  0.96715787  0.11550738  0.76199631    -0.12200
C1466       C  0.93680316  0.09559125  0.77088973     0.01800
H1467       H  0.87288764  0.13840174  0.72576512     0.14700
H1468       H  0.99351057  0.10918200  0.77212088     0.14700
C1469       C  0.94258910  0.06693552  0.79320429     0.36400
C1470       C  0.92520011  0.17928814  0.70372549     0.36300
N1471       N  0.94732297  0.04411370  0.81117742    -0.44000
N1472       N  0.92184928  0.20125229  0.68482749    -0.44000
C1473       C  0.04977008  0.23571812  0.82910150    -0.00400
C1474       C  0.02231032  0.26087929  0.83674110    -0.12200
C1475       C  0.00640884  0.26048741  0.86567443     0.01900
C1476       C  0.01758388  0.23409850  0.88734987    -0.00500
C1477       C  0.04657081  0.21056743  0.88035655    -0.12200
C1478       C  0.06278176  0.21123794  0.85168488     0.01800
H1479       H  0.01219975  0.28001519  0.81956450     0.14700
H1480       H  0.05560347  0.19032891  0.89707081     0.14700
C1481       C  0.09035257  0.18430046  0.84533309     0.36400
C1482       C  0.97699122  0.28549636  0.87171282     0.36300
N1483       N  0.11234002  0.16251313  0.84047550    -0.44000
N1484       N  0.95343723  0.30558616  0.87656536    -0.44000
C1485       C  0.01029365  0.22457196  0.63420132    -0.00400
C1486       C  0.98267498  0.25064901  0.62856685    -0.12200
C1487       C  0.96470738  0.25267623  0.59988187     0.01900
C1488       C  0.97492520  0.22871886  0.57641483    -0.00500
C1489       C  0.00208018  0.20269517  0.58226574    -0.12200
C1490       C  0.01964712  0.20028141  0.61048877     0.01800
H1491       H  0.97457289  0.26878579  0.64669828     0.14700
H1492       H  0.01017770  0.18432414  0.56423300     0.14700
C1493       C  0.04765451  0.17264235  0.61389634     0.36400
C1494       C  0.93648271  0.27961111  0.59500121     0.36300
N1495       N  0.06972832  0.15016154  0.61629342    -0.44000
N1496       N  0.91367424  0.30112314  0.59135998    -0.44000
C1497       C  0.17168168  0.17653459  0.66213463    -0.00400
C1498       C  0.16511401  0.18813744  0.63189701    -0.12200
C1499       C  0.18234347  0.17114846  0.60737731     0.01900
C1500       C  0.20690329  0.14210666  0.61307067    -0.00500
C1501       C  0.21682410  0.13379006  0.64344063    -0.12200
C1502       C  0.19930846  0.15044975  0.66791945     0.01800
H1503       H  0.14371573  0.20801772  0.62722499     0.14700
H1504       H  0.23553792  0.11134343  0.64803366     0.14700
C1505       C  0.20627212  0.13619215  0.69823460     0.36400
C1506       C  0.17041749  0.18052827  0.57676330     0.36300
N1507       N  0.21176273  0.12436970  0.72240248    -0.44000
N1508       N  0.16061201  0.18803717  0.55230018    -0.44000
C1509       C  0.17119164  0.02903658  0.78289138    -0.00400
C1510       C  0.18327353  0.06249510  0.79464799    -0.12200
C1511       C  0.16579098  0.09527550  0.78666807     0.01900
C1512       C  0.13532456  0.09498454  0.76646867    -0.00500
C1513       C  0.12275776  0.06131068  0.75537641    -0.12200
C1514       C  0.14040329  0.02863521  0.76316917     0.01800
H1515       H  0.20677540  0.06311379  0.80986773     0.14700
H1516       H  0.09964362  0.06052160  0.73974916     0.14700
C1517       C  0.12780621  0.99558359  0.74874205     0.36400
C1518       C  0.18124481  0.12871659  0.79820335     0.36300
N1519       N  0.11780353  0.96929213  0.73683990    -0.44000
N1520       N  0.19381623  0.15545148  0.80740897    -0.44000
C1521       C  0.16583608  0.58284073  0.53222971    -0.00400
C1522       C  0.15555292  0.61116412  0.55129877    -0.12200
C1523       C  0.13261497  0.63898701  0.54071483     0.01900
C1524       C  0.11915618  0.63884242  0.51018999    -0.00500
C1525       C  0.12419506  0.61032770  0.99491003    -0.12200
C1526       C  0.14649272  0.58186273  0.00639444     0.01800
H1527       H  0.16864688  0.61358900  0.57356236     0.14700
H1528       H  0.11161544  0.60802552  0.97249151     0.14700
C1529       C  0.15140931  0.54961129  0.98821922     0.36400
C1530       C  0.12660816  0.66842347  0.56163316     0.36300
N1531       N  0.15507309  0.52351030  0.97386404    -0.44000
N1532       N  0.12379425  0.69029840  0.58034849    -0.44000
C1533       C  0.40373371  0.81952791  0.76111031    -0.00400
C1534       C  0.39407760  0.84800451  0.74119598    -0.12200
C1535       C  0.37075904  0.87616760  0.75066227     0.01900
C1536       C  0.35697038  0.87627426  0.78067192    -0.00500
C1537       C  0.37023416  0.85023963  0.80140813    -0.12200
C1538       C  0.39281261  0.82178183  0.79194175     0.01800
H1539       H  0.40212261  0.84659055  0.71755572     0.14700
H1540       H  0.35947994  0.84970697  0.82430902     0.14700
C1541       C  0.40060528  0.79366702  0.81416298     0.36400
C1542       C  0.35823209  0.90181119  0.72786295     0.36300
N1543       N  0.40505403  0.77244359  0.83347130    -0.44000
N1544       N  0.34909649  0.92162438  0.70862719    -0.44000
C1545       C  0.34726245  0.67664235  0.66371217    -0.00400
C1546       C  0.31947775  0.65197038  0.67093216    -0.12200
C1547       C  0.30140828  0.63234174  0.64778194     0.01900
C1548       C  0.31082789  0.63769664  0.61693819    -0.00500
C1549       C  0.33426453  0.66638487  0.60961885    -0.12200
C1550       C  0.35267333  0.68562687  0.63267636     0.01800
H1551       H  0.31471720  0.64502348  0.69458200     0.14700
H1552       H  0.34141873  0.67102100  0.58602921     0.14700
C1553       C  0.37970110  0.71196232  0.62385099     0.36400
C1554       C  0.27507769  0.60507053  0.65619626     0.36300
N1555       N  0.40147413  0.73289962  0.61668305    -0.44000
N1556       N  0.25380511  0.58331278  0.66276057    -0.44000
C1557       C  0.16941885  0.37200466  0.77754643    -0.00400
C1558       C  0.16160170  0.37313861  0.74597275    -0.12200
C1559       C  0.13738730  0.34807958  0.73247901     0.01900
C1560       C  0.11919166  0.32269070  0.75089464    -0.00500
C1561       C  0.12435510  0.32404304  0.78272251    -0.12200
C1562       C  0.14989675  0.34769251  0.79602169     0.01800
H1563       H  0.17730853  0.39096209  0.73142614     0.14700
H1564       H  0.11111387  0.30398204  0.79699650     0.14700
C1565       C  0.15811511  0.34418598  0.82821657     0.36400
C1566       C  0.13401731  0.34669965  0.69966522     0.36300
N1567       N  0.16493256  0.34116583  0.85396979    -0.44000
N1568       N  0.13135708  0.34538987  0.67335517    -0.44000
C1569       C  0.38612127  0.59060221  0.76362054    -0.00400
C1570       C  0.40339738  0.55677992  0.76036129    -0.12200
C1571       C  0.38668089  0.52455634  0.77004734     0.01900
C1572       C  0.35133404  0.52581530  0.78267920    -0.00500
C1573       C  0.33409060  0.55983471  0.78561006    -0.12200
C1574       C  0.35106297  0.59196454  0.77638353     0.01800
H1575       H  0.43014928  0.55553478  0.75027392     0.14700
H1576       H  0.30708149  0.56149347  0.79518315     0.14700
C1577       C  0.33101873  0.62576005  0.77897724     0.36400
C1578       C  0.40642384  0.49083781  0.76605241     0.36300
N1579       N  0.31493912  0.65280739  0.78102068    -0.44000
N1580       N  0.42255419  0.46400038  0.76286797    -0.44000
C1581       C  0.26482651  0.46779187  0.63822594    -0.00400
C1582       C  0.23495806  0.47675362  0.65624929    -0.12200
C1583       C  0.23190374  0.46212416  0.68569362     0.01900
C1584       C  0.25847146  0.43732100  0.69699436    -0.00500
C1585       C  0.28641967  0.42592006  0.67800055    -0.12200
C1586       C  0.29019058  0.44126762  0.64902039     0.01800
H1587       H  0.21530744  0.49683255  0.64812460     0.14700
H1588       H  0.30693853  0.40702345  0.68667397     0.14700
C1589       C  0.32143006  0.43038289  0.63158306     0.36400
C1590       C  0.20191739  0.47370179  0.70427018     0.36300
N1591       N  0.34684186  0.42171183  0.61809782    -0.44000
N1592       N  0.17793189  0.48292833  0.71922857    -0.44000
C1593       C  0.26771243  0.48020339  0.89052818    -0.00400
C1594       C  0.24685668  0.51212047  0.89437524    -0.12200
C1595       C  0.24558568  0.52945503  0.92300292     0.01900
C1596       C  0.26459384  0.51402441  0.94816529    -0.00500
C1597       C  0.28532856  0.48241172  0.94403307    -0.12200
C1598       C  0.28735455  0.46570571  0.91583453     0.01800
H1599       H  0.23267843  0.52416048  0.87486752     0.14700
H1600       H  0.30045543  0.47060707  0.96321351     0.14700
C1601       C  0.31056587  0.43391226  0.91388129     0.36400
C1602       C  0.22470663  0.56258020  0.92606385     0.36300
N1603       N  0.32988182  0.40895755  0.91312646    -0.44000
N1604       N  0.20817415  0.58930013  0.92849655    -0.44000
C1605       C  0.35509202  0.08886187  0.53201215    -0.00400
C1606       C  0.36640439  0.08682161  0.00206126    -0.12200
C1607       C  0.39166193  0.11193604  0.99066722     0.01900
C1608       C  0.40727724  0.13847513  0.50992436    -0.00500
C1609       C  0.39747184  0.13859003  0.54080630    -0.12200
C1610       C  0.37120636  0.11444335  0.55182269     0.01800
H1611       H  0.35359544  0.06764112  0.98656776     0.14700
H1612       H  0.40785684  0.15976236  0.55569994     0.14700
C1613       C  0.35919641  0.11813058  0.58286464     0.36400
C1614       C  0.40017965  0.11140260  0.95868008     0.36300
N1615       N  0.34957578  0.12102702  0.60774730    -0.44000
N1616       N  0.40689563  0.11096480  0.93299047    -0.44000
C1617       C  0.31603456  0.31853119  0.86796127    -0.00400
C1618       C  0.30474674  0.32459054  0.89801801    -0.12200
C1619       C  0.32191283  0.30671262  0.92275977     0.01900
C1620       C  0.35136982  0.28280522  0.91742946    -0.00500
C1621       C  0.35902725  0.27308942  0.88726220    -0.12200
C1622       C  0.34157098  0.29055279  0.86258441     0.01800
H1623       H  0.28466522  0.34556825  0.90233341     0.14700
H1624       H  0.38115794  0.25428281  0.88294338     0.14700
C1625       C  0.35398896  0.28242041  0.83232231     0.36400
C1626       C  0.31141790  0.31651270  0.95325468     0.36300
N1627       N  0.36430736  0.27547422  0.80824969    -0.44000
N1628       N  0.30268726  0.32432068  0.97762019    -0.44000
C1629       C  0.34967972  0.42750223  0.53811412    -0.00400
C1630       C  0.38056856  0.43093277  0.02366501    -0.12200
C1631       C  0.40019656  0.39997854  0.01525790     0.01900
C1632       C  0.38929200  0.36458814  0.52156587    -0.00500
C1633       C  0.35644183  0.36144225  0.53726872    -0.12200
C1634       C  0.33640390  0.39235433  0.54526661     0.01800
H1635       H  0.39179994  0.45764239  0.01894821     0.14700
H1636       H  0.34563651  0.33465414  0.54234246     0.14700
C1637       C  0.30274170  0.38695151  0.56126219     0.36400
C1638       C  0.43553745  0.40490271  0.00185922     0.36300
N1639       N  0.27587278  0.38254986  0.57419932    -0.44000
N1640       N  0.46394614  0.40883416  0.99130277    -0.44000
C1641       C  0.84300411  0.36835780  0.51840501    -0.00400
C1642       C  0.87919539  0.36914166  0.52934146    -0.12200
C1643       C  0.90605581  0.34666952  0.51619399     0.01900
C1644       C  0.89687519  0.32416500  0.49105127    -0.00500
C1645       C  0.86211198  0.32764657  0.47785917    -0.12200
C1646       C  0.83498720  0.34781955  0.49183587     0.01800
H1647       H  0.88584469  0.38503751  0.54948439     0.14700
H1648       H  0.85477079  0.31086178  0.45833570     0.14700
C1649       C  0.79854648  0.34356256  0.47951366     0.36400
C1650       C  0.94164578  0.34474202  0.53052007     0.36300
N1651       N  0.76997069  0.33821184  0.46899554    -0.44000
N1652       N  0.97019490  0.34310132  0.54201886    -0.44000
C1653       C  0.55562439  0.32398388  0.00579321    -0.00400
C1654       C  0.56713413  0.32349032  0.53766400    -0.12200
C1655       C  0.59606742  0.34488312  0.54858409     0.01900
C1656       C  0.61817240  0.36403687  0.52774498    -0.00500
C1657       C  0.60723229  0.36329364  0.99594660    -0.12200
C1658       C  0.57748370  0.34317384  0.98513474     0.01800
H1659       H  0.55050776  0.30847718  0.55361397     0.14700
H1660       H  0.62455020  0.37692586  0.97968671     0.14700
C1661       C  0.56980079  0.34302084  0.95275176     0.36400
C1662       C  0.60294649  0.34564913  0.58110585     0.36300
N1663       N  0.56368355  0.34375559  0.92678777    -0.44000
N1664       N  0.60820222  0.34636828  0.60719758    -0.44000
C1665       C  0.67170294  0.08420707  0.77611162    -0.00400
C1666       C  0.66152585  0.10888443  0.79859943    -0.12200
C1667       C  0.63667334  0.13679524  0.79201439     0.01900
C1668       C  0.62096075  0.14001267  0.76242388    -0.00500
C1669       C  0.62769033  0.11272049  0.74099607    -0.12200
C1670       C  0.65302256  0.08482221  0.74763090     0.01800
H1671       H  0.67593605  0.10867338  0.82041706     0.14700
H1672       H  0.61581096  0.11504725  0.71825994     0.14700
C1673       C  0.66248968  0.05997730  0.72361735     0.36400
C1674       C  0.63087856  0.16364725  0.81541116     0.36300
N1675       N  0.66974811  0.04024352  0.70412357    -0.44000
N1676       N  0.62737766  0.18438677  0.83494629    -0.44000
C1677       C  0.46257839  0.31794688  0.74926686    -0.00400
C1678       C  0.42874696  0.30344978  0.74038094    -0.12200
C1679       C  0.39622704  0.32082141  0.74798395     0.01900
C1680       C  0.39721008  0.35327931  0.76521443    -0.00500
C1681       C  0.43109765  0.36758145  0.77430671    -0.12200
C1682       C  0.46359787  0.35028513  0.76658124     0.01800
H1683       H  0.42767160  0.27834650  0.72746973     0.14700
H1684       H  0.43222870  0.39198274  0.78811789     0.14700
C1685       C  0.49732921  0.36493986  0.77859332     0.36400
C1686       C  0.36240812  0.30331622  0.73949224     0.36300
N1687       N  0.52427799  0.37649269  0.78850590    -0.44000
N1688       N  0.33530478  0.28911792  0.73300171    -0.44000
C1689       C  0.55087729  0.23261390  0.84092170    -0.00400
C1690       C  0.52425166  0.20708367  0.84946124    -0.12200
C1691       C  0.50964445  0.20700068  0.87885978     0.01900
C1692       C  0.52119692  0.23330151  0.90013740    -0.00500
C1693       C  0.54957318  0.25697154  0.89230428    -0.12200
C1694       C  0.56458146  0.25683510  0.86314242     0.01800
H1695       H  0.51392794  0.18775706  0.83270453     0.14700
H1696       H  0.55923976  0.27679043  0.90898124     0.14700
C1697       C  0.59190074  0.28365118  0.85604152     0.36400
C1698       C  0.48140481  0.18123039  0.88598857     0.36300
N1699       N  0.61377465  0.30518334  0.85040094    -0.44000
N1700       N  0.45889977  0.16040673  0.89170073    -0.44000
C1701       C  0.50106481  0.23007140  0.64941439    -0.00400
C1702       C  0.50989319  0.20019917  0.63109854    -0.12200
C1703       C  0.49471649  0.19708628  0.60163573     0.01900
C1704       C  0.46994194  0.22382216  0.59053372    -0.00500
C1705       C  0.45807399  0.25114573  0.61007285    -0.12200
C1706       C  0.47356669  0.25471583  0.63918524     0.01800
H1707       H  0.53033433  0.18076583  0.63891745     0.14700
H1708       H  0.43887108  0.27154249  0.60170725     0.14700
C1709       C  0.46194623  0.28524344  0.65732545     0.36400
C1710       C  0.50565534  0.16691532  0.58279170     0.36300
N1711       N  0.45259712  0.31012354  0.67132921    -0.44000
N1712       N  0.51419434  0.14269143  0.56765058    -0.44000
C1713       C  0.67222170  0.28631115  0.67110629    -0.00400
C1714       C  0.66752231  0.27519122  0.64061066    -0.12200
C1715       C  0.68554917  0.29298269  0.61670636     0.01900
C1716       C  0.70776362  0.32349725  0.62311559    -0.00500
C1717       C  0.71619076  0.33118020  0.65384626    -0.12200
C1718       C  0.69892743  0.31283675  0.67772634     0.01800
H1719       H  0.64749673  0.25435061  0.63519952     0.14700
H1720       H  0.73403714  0.35392122  0.65926211     0.14700
C1721       C  0.70601329  0.32502500  0.70848336     0.36400
C1722       C  0.67793211  0.28155208  0.58581034     0.36300
N1723       N  0.71210623  0.33497605  0.73302433    -0.44000
N1724       N  0.67201320  0.27215397  0.56107010    -0.44000
C1725       C  0.85112038  0.59677158  0.78720633    -0.00400
C1726       C  0.85081903  0.63409333  0.79396703    -0.12200
C1727       C  0.87241277  0.65875033  0.77839831     0.01900
C1728       C  0.89879820  0.64632697  0.75757048    -0.00500
C1729       C  0.90295496  0.60844698  0.75370203    -0.12200
C1730       C  0.87875161  0.58364759  0.76775280     0.01800
H1731       H  0.83073457  0.64491671  0.80944382     0.14700
H1732       H  0.92334410  0.59840690  0.73820118     0.14700
C1733       C  0.88167198  0.54545809  0.76052147     0.36400
C1734       C  0.86424986  0.69689733  0.78302839     0.36300
N1735       N  0.88414583  0.51480619  0.75475482    -0.44000
N1736       N  0.85640943  0.72710350  0.78687315    -0.44000
C1737       C  0.67446157  0.43295582  0.78632439    -0.00400
C1738       C  0.64184660  0.43624409  0.76921367    -0.12200
C1739       C  0.62198652  0.40549491  0.76029951     0.01900
C1740       C  0.63428341  0.37040727  0.76902252    -0.00500
C1741       C  0.66620539  0.36717024  0.78701350    -0.12200
C1742       C  0.68658085  0.39784329  0.79528823     0.01800
H1743       H  0.63201957  0.46295438  0.76235228     0.14700
H1744       H  0.67605696  0.34043325  0.79378273     0.14700
C1745       C  0.71949643  0.39224015  0.81320537     0.36400
C1746       C  0.58881212  0.41096382  0.74271048     0.36300
N1747       N  0.74594607  0.38756308  0.82741951    -0.44000
N1748       N  0.56224050  0.41547227  0.72862411    -0.44000
C1749       C  0.62583139  0.60536508  0.75949115    -0.00400
C1750       C  0.59211744  0.58953447  0.76602151    -0.12200
C1751       C  0.55940310  0.60652286  0.75737329     0.01900
C1752       C  0.55986423  0.64037991  0.74174043    -0.00500
C1753       C  0.59363536  0.65582185  0.73448469    -0.12200
C1754       C  0.62644156  0.63869053  0.74309476     0.01800
H1755       H  0.59127102  0.56404133  0.77864530     0.14700
H1756       H  0.59445787  0.68163459  0.72233488     0.14700
C1757       C  0.66010015  0.65707249  0.73631201     0.36400
C1758       C  0.52593822  0.58933099  0.76646468     0.36300
N1759       N  0.68703825  0.67186409  0.73090036    -0.44000
N1760       N  0.49919296  0.57550745  0.77384526    -0.44000
C1761       C  0.77125097  0.52201060  0.70071804    -0.00400
C1762       C  0.79166714  0.49011091  0.69494777    -0.12200
C1763       C  0.79152300  0.47387675  0.66602468     0.01900
C1764       C  0.77107076  0.48987402  0.64207709    -0.00500
C1765       C  0.75326946  0.52327817  0.64711155    -0.12200
C1766       C  0.75319392  0.53945595  0.67601754     0.01800
H1767       H  0.80603588  0.47644952  0.71365164     0.14700
H1768       H  0.73702280  0.53548526  0.62875836     0.14700
C1769       C  0.73124329  0.57170492  0.68020869     0.36400
C1770       C  0.80932255  0.43904307  0.66233898     0.36300
N1771       N  0.71348742  0.59747021  0.68349867    -0.44000
N1772       N  0.82343189  0.41102961  0.65948451    -0.44000
C1773       C  0.75553575  0.47629931  0.89109579    -0.00400
C1774       C  0.73156232  0.44772318  0.89806857    -0.12200
C1775       C  0.73068926  0.43252194  0.92736368     0.01900
C1776       C  0.75361288  0.44665147  0.95048241    -0.00500
C1777       C  0.77956619  0.47325581  0.94279367    -0.12200
C1778       C  0.78098572  0.48781225  0.91326521     0.01800
H1779       H  0.71246636  0.43824120  0.88085170     0.14700
H1780       H  0.79809868  0.48347521  0.96012213     0.14700
C1781       C  0.80721719  0.51594243  0.90692097     0.36400
C1782       C  0.70447388  0.40423144  0.93330587     0.36300
N1783       N  0.82841801  0.53835118  0.90187443    -0.44000
N1784       N  0.68355306  0.38139362  0.93781035    -0.44000
C1785       C  0.61520073  0.82530397  0.50176683    -0.00400
C1786       C  0.63822662  0.83917924  0.97667751    -0.12200
C1787       C  0.66201589  0.86819017  0.48620763     0.01900
C1788       C  0.67164036  0.87498513  0.51706912    -0.00500
C1789       C  0.65048022  0.85939942  0.53990028    -0.12200
C1790       C  0.62216983  0.83516256  0.53252277     0.01800
H1791       H  0.63700006  0.82778570  0.95386403     0.14700
H1792       H  0.65760799  0.86430306  0.56365270     0.14700
C1793       C  0.60297860  0.81869405  0.55739340     0.36400
C1794       C  0.69211501  0.87148132  0.96095735     0.36300
N1795       N  0.58824849  0.80670738  0.57825208    -0.44000
N1796       N  0.71148505  0.87699343  0.94093520    -0.44000
C1797       C  0.45896599  0.64145315  0.99930980    -0.00400
C1798       C  0.46255960  0.60695768  0.01337245    -0.12200
C1799       C  0.43193154  0.58691148  0.02206956     0.01900
C1800       C  0.39708766  0.60170353  0.51556018    -0.00500
C1801       C  0.39369983  0.63562539  0.50078670    -0.12200
C1802       C  0.42439762  0.65565636  0.49247765     0.01800
H1803       H  0.48944064  0.59573851  0.01804561     0.14700
H1804       H  0.36685430  0.64712079  0.49644135     0.14700
C1805       C  0.41843099  0.69013855  0.47710341     0.36400
C1806       C  0.43747806  0.55164218  0.03625167     0.36300
N1807       N  0.41355274  0.71765395  0.46463128    -0.44000
N1808       N  0.44187297  0.52336224  0.04758232    -0.44000
C1809       C  0.54852159  0.73293589  0.58573176    -0.00400
C1810       C  0.52163810  0.75861397  0.59369213    -0.12200
C1811       C  0.50524801  0.75764687  0.62232758     0.01900
C1812       C  0.51541078  0.73020139  0.64331478    -0.00500
C1813       C  0.54367433  0.70589764  0.63599592    -0.12200
C1814       C  0.56017518  0.70695696  0.60750264     0.01800
H1815       H  0.51228012  0.77858589  0.57688771     0.14700
H1816       H  0.55161161  0.68460451  0.65215564     0.14700
C1817       C  0.58591844  0.67863557  0.60006824     0.36400
C1818       C  0.47613936  0.78295780  0.62857692     0.36300
N1819       N  0.60627052  0.65572097  0.59403213    -0.44000
N1820       N  0.45273565  0.80318718  0.63353777    -0.44000
C1821       C  0.49909017  0.72414310  0.89454023    -0.00400
C1822       C  0.51202036  0.75065998  0.87441439    -0.12200
C1823       C  0.50012765  0.75129434  0.84391429     0.01900
C1824       C  0.47395573  0.72574208  0.83354771    -0.00500
C1825       C  0.45899028  0.70117768  0.85426739    -0.12200
C1826       C  0.47169528  0.69971645  0.88440769     0.01800
H1827       H  0.53304925  0.76934294  0.88197992     0.14700
H1828       H  0.43878868  0.68171585  0.84647515     0.14700
C1829       C  0.45718875  0.67164149  0.90392930     0.36400
C1830       C  0.51566701  0.77800850  0.82364653     0.36300
N1831       N  0.44562369  0.64861873  0.91904419    -0.44000
N1832       N  0.52823990  0.79927161  0.80735186    -0.44000
C1833       C  0.66409406  0.67928216  0.91460867    -0.00400
C1834       C  0.69439410  0.65719481  0.92151559    -0.12200
C1835       C  0.71277085  0.63871647  0.89831429     0.01900
C1836       C  0.70128591  0.64260297  0.86750128    -0.00500
C1837       C  0.67447652  0.66877920  0.86032201    -0.12200
C1838       C  0.65580162  0.68697763  0.88355441     0.01800
H1839       H  0.70141078  0.65135306  0.94516409     0.14700
H1840       H  0.66562565  0.67242672  0.83678428     0.14700
C1841       C  0.62660479  0.71167900  0.87503948     0.36400
C1842       C  0.74190536  0.61408488  0.90688621     0.36300
N1843       N  0.60329163  0.73155810  0.86821144    -0.44000
N1844       N  0.76535225  0.59451575  0.91395722    -0.44000
C1845       C  0.63694530  0.59604469  0.52117404    -0.00400
C1846       C  0.67052151  0.60018158  0.53667700    -0.12200
C1847       C  0.69056857  0.56982293  0.54706982     0.01900
C1848       C  0.67693332  0.53432476  0.54209801    -0.00500
C1849       C  0.64038456  0.53130024  0.02715854    -0.12200
C1850       C  0.62067011  0.56168962  0.01677484     0.01800
H1851       H  0.68149018  0.62725149  0.54028054     0.14700
H1852       H  0.62970028  0.50430949  0.02261934     0.14700
C1853       C  0.58630030  0.55564379  0.00113910     0.36400
C1854       C  0.72436636  0.57610437  0.56347769     0.36300
N1855       N  0.55878709  0.55085880  0.98857879    -0.44000
N1856       N  0.75138614  0.58130756  0.57666697    -0.44000
loop_ 
_geom_bond_atom_site_label_1 
_geom_bond_atom_site_label_2 
_geom_bond_distance 
_geom_bond_site_symmetry_2 
_ccdc_geom_bond_type 
Fe1          O12   1.955       .  S
Fe1          O14   2.070       .  S
Fe1           O6   2.112       .  S
Fe1         O945   2.105       .  S
Fe1         O935   2.022       .  S
Fe2          O12   1.940       .  S
Fe2           O5   2.073       .  S
Fe2           O9   2.048       .  S
Fe2          O13   2.062       .  S
Fe2          O18   2.044       .  S
Fe3         O940   1.940   1_554  S
Fe3          O21   2.049       .  S
Fe3          O15   2.114       .  S
Fe3           O4   2.039   1_554  S
Fe3         O936   2.129   1_554  S
O4          C939   1.264       .  A
O5          C947   1.267       .  A
O6           C11   1.274       .  A
O7         Fe929   2.025   1_554  S
O7           C10   1.267       .  A
O8         Fe931   2.129       .  S
O8           C20   1.286       .  A
O9           C22   1.270       .  A
C10          O15   1.283       .  A
C10         C881   1.478       .  S
C11         O932   1.262       .  A
C11        C1785   1.483       .  S
O12        Fe931   1.941       .  S
O13          C16   1.267       .  A
O14          C16   1.272       .  A
C16         C893   1.474       .  S
O17        Fe929   2.108       .  S
O17         C950   1.280       .  A
O18          C20   1.270       .  A
C19          O21   1.263       .  A
C19         O933   1.265   1_554  A
C19         C917   1.480       .  S
C20         C905   1.488       .  S
C22         O945   1.278       .  A
C22         C869   1.491       .  S
Fe23         O34   1.956       .  S
Fe23         O39   2.104       .  S
Fe23         O29   2.029       .  S
Fe23         O36   2.075       .  S
Fe23         O28   2.119       .  S
Fe24         O34   1.933       .  S
Fe24         O27   2.076       .  S
Fe24         O31   2.036       .  S
Fe24         O35   2.073       .  S
Fe24         O40   2.046       .  S
Fe25         O34   1.932       .  S
Fe25         O43   2.053       .  S
Fe25         O30   2.130       .  S
Fe25         O37   2.126       .  S
Fe25         O26   2.034       .  S
O26          C33   1.265       .  A
O27          C41   1.269       .  A
O28          C33   1.275       .  A
O29          C32   1.267       .  A
O30          C42   1.284       .  A
O31          C44   1.268       .  A
C32          O37   1.284       .  A
C32         C833   1.491       .  S
C33         C797   1.498       .  S
O35          C38   1.270       .  A
O36          C38   1.273       .  A
C38         C845   1.481       .  S
O39          C44   1.279       .  A
O40          C42   1.270       .  A
C41          O43   1.265       .  A
C41         C821   1.481       .  S
C42         C908   1.489       .  S
C44         C809   1.483       .  S
Fe45         O56   1.959       .  S
Fe45         O61   2.075       .  S
Fe45         O51   2.095       .  S
Fe45         O58   2.090       .  S
Fe45         O50   2.044       .  S
Fe46         O56   1.943       .  S
Fe46         O49   2.042       .  S
Fe46         O53   2.058       .  S
Fe46         O57   2.038       .  S
Fe46         O62   2.075       .  S
Fe47         O56   1.941       .  S
Fe47         O65   2.124       .  S
Fe47         O52   2.042       .  S
Fe47         O59   2.042       .  S
Fe47         O48   2.094       .  S
O48          C55   1.277       .  A
O49          C63   1.271       .  A
O50          C55   1.268       .  A
O51          C54   1.274       .  A
O52          C64   1.261       .  A
O53          C66   1.266       .  A
C54          O59   1.267       .  A
C54         C740   1.474       .  S
C55         C761   1.485       .  S
O57          C60   1.270       .  A
O58          C60   1.277       .  A
C60         C749   1.475       .  S
O61          C66   1.270       .  A
O62          C64   1.265       .  A
C63          O65   1.284       .  A
C63         C785   1.487       .  S
C64         C812   1.478       .  S
C66         C773   1.479       .  S
Fe67         O78   1.952       .  S
Fe67         O83   2.078       .  S
Fe67         O73   2.118       .  S
Fe67         O80   2.108       .  S
Fe67       O1000   2.033       .  S
Fe68         O78   1.939       .  S
Fe68         O71   2.042       .  S
Fe68         O75   2.069       .  S
Fe68         O79   2.038       .  S
Fe68         O84   2.087       .  S
Fe69         O78   1.931       .  S
Fe69         O87   2.122       .  S
Fe69         O74   2.047       .  S
Fe69         O81   2.044       .  S
Fe69        O998   2.094   1_554  S
O70        Fe997   2.107       .  S
O70          C77   1.278       .  A
O71          C85   1.272       .  A
O72        Fe995   2.038       .  S
O72          C77   1.267       .  A
O73          C76   1.278       .  A
O74          C86   1.261       .  A
O75          C88   1.268       .  A
C76          O81   1.266       .  A
C76         C713   1.490       .  S
C77         C848   1.486       .  S
O79          C82   1.271       .  A
O80          C82   1.280       .  A
C82         C920   1.482       .  S
O83          C88   1.272       .  A
O84          C86   1.267       .  A
C85          O87   1.285       .  A
C85         C788   1.488       .  S
C86         C728   1.487       .  S
C88         C836   1.477       .  S
Fe89        O100   1.951       .  S
Fe89        O102   2.080       .  S
Fe89         O94   2.106       .  S
Fe89       O1033   2.110       .  S
Fe89       O1023   2.032       .  S
Fe90        O100   1.938       .  S
Fe90         O93   2.072       .  S
Fe90         O97   2.036       .  S
Fe90        O101   2.067       .  S
Fe90        O106   2.043       .  S
Fe91       O1028   1.945   1_554  S
Fe91        O109   2.049       .  S
Fe91        O103   2.101       .  S
Fe91         O92   2.043   1_554  S
Fe91       O1024   2.108   1_554  S
O92        C1027   1.265       .  A
O93        C1035   1.268       .  A
O94          C99   1.275       .  A
O95       Fe1017   2.032   1_554  S
O95          C98   1.266       .  A
O96       Fe1019   2.114       .  S
O96         C108   1.280       .  A
O97         C110   1.266       .  A
C98         O103   1.277       .  A
C98         C776   1.471       .  S
C99        O1020   1.265       .  A
C99        C1608   1.478       .  S
O100      Fe1019   1.942       .  S
O101        C104   1.268       .  A
O102        C104   1.272       .  A
C104        C764   1.479       .  S
O105      Fe1017   2.110       .  S
O105       C1038   1.280       .  A
O106        C108   1.269       .  A
C107        O109   1.265       .  A
C107       O1021   1.268   1_554  A
C107        C704   1.475       .  S
C108        C692   1.483       .  S
C110       O1033   1.280       .  A
C110        C725   1.470       .  S
Fe111       O122   1.950       .  S
Fe111       O127   2.105       .  S
Fe111       O117   2.031       .  S
Fe111       O124   2.080       .  S
Fe111       O116   2.107       .  S
Fe112       O122   1.932       .  S
Fe112       O115   2.056       .  S
Fe112       O119   2.039       .  S
Fe112       O123   2.054       .  S
Fe112       O128   2.047       .  S
Fe113       O122   1.937       .  S
Fe113       O131   2.051       .  S
Fe113       O118   2.112       .  S
Fe113       O125   2.101       .  S
Fe113       O114   2.046       .  S
O114        C121   1.264       .  A
O115        C129   1.265       .  A
O116        C121   1.275       .  A
O117        C120   1.268       .  A
O118        C130   1.280       .  A
O119        C132   1.267       .  A
C120        O125   1.279       .  A
C120        C656   1.468       .  S
C121        C629   1.482       .  S
O123        C126   1.266       .  A
O124        C126   1.274       .  A
C126        C665   1.476       .  S
O127        C132   1.280       .  A
O128        C130   1.270       .  A
C129        O131   1.264       .  A
C129        C752   1.475       .  S
C130        C689   1.484       .  S
C132        C644   1.487       .  S
Fe133       O144   1.956       .  S
Fe133       O149   2.068       .  S
Fe133       O139   2.107       .  S
Fe133       O146   2.106       .  S
Fe133       O138   2.026       .  S
Fe134       O144   1.937       .  S
Fe134       O137   2.039       .  S
Fe134       O141   2.064       .  S
Fe134       O145   2.040       .  S
Fe134       O150   2.080       .  S
Fe135       O144   1.938       .  S
Fe135       O153   2.127       .  S
Fe135       O140   2.038       .  S
Fe135       O147   2.048       .  S
Fe135       O136   2.096       .  S
O136        C143   1.280       .  A
O137        C151   1.270       .  A
O138        C143   1.266       .  A
O139        C142   1.274       .  A
O140        C152   1.260       .  A
O141        C154   1.269       .  A
C142        O147   1.266       .  A
C142        C605   1.483       .  S
C143        C896   1.472       .  S
O145        C148   1.268       .  A
O146        C148   1.278       .  A
C148        C824   1.489       .  S
O149        C154   1.271       .  A
O150        C152   1.268       .  A
C151        O153   1.285       .  A
C151        C617   1.488       .  S
C152        C641   1.478       .  S
C154        C884   1.471       .  S
Fe155       O166   1.957       .  S
Fe155       O171   2.064       .  S
Fe155       O161   2.089       .  S
Fe155       O168   2.091       .  S
Fe155      O1088   2.019   1_554  S
Fe156       O166   1.942       .  S
Fe156       O159   2.047       .  S
Fe156       O163   2.062       .  S
Fe156       O167   2.042       .  S
Fe156       O172   2.075       .  S
Fe157       O166   1.946       .  S
Fe157       O175   2.118       .  S
Fe157       O162   2.052       .  S
Fe157       O169   2.036       .  S
Fe157      O1086   2.108   1_554  S
O158      Fe1085   2.105       .  S
O158        C165   1.278       .  A
O159        C173   1.271       .  A
O160      Fe1083   2.025       .  S
O160        C165   1.268       .  A
O161        C164   1.270       .  A
O162        C174   1.263       .  A
O163        C176   1.267       .  A
C164        O169   1.266       .  A
C164        C593   1.474       .  S
C165        C668   1.472       .  S
O167        C170   1.269       .  A
O168        C170   1.276       .  A
C170        C701   1.480       .  S
O171        C176   1.269       .  A
O172        C174   1.267       .  A
C173        O175   1.283       .  A
C173        C620   1.484       .  S
C174        C872   1.483       .  S
C176        C653   1.476       .  S
Fe177       O188   1.953       .  S
Fe177       O193   2.101   1_455  S
Fe177       O183   2.036       .  S
Fe177       O190   2.086       .  S
Fe177       O182   2.108       .  S
Fe178       O188   1.932       .  S
Fe178       O181   2.065       .  S
Fe178       O185   2.039       .  S
Fe178       O189   2.060       .  S
Fe178       O194   2.040       .  S
Fe179       O188   1.943       .  S
Fe179       O197   2.058       .  S
Fe179       O184   2.114       .  S
Fe179       O191   2.107       .  S
Fe179       O180   2.048       .  S
O180        C187   1.264       .  A
O181        C195   1.266       .  A
O182        C187   1.275       .  A
O183        C186   1.270       .  A
O184        C196   1.281       .  A
O185        C198   1.268   1_455  A
C186        O191   1.281       .  A
C186        C545   1.481       .  S
C187        C632   1.481       .  S
O189        C192   1.267       .  A
O190        C192   1.275       .  A
C192        C557   1.487       .  S
O193        C198   1.278       .  A
O194        C196   1.269       .  A
C195        O197   1.264       .  A
C195        C584   1.485       .  S
C196        C569   1.479       .  S
C198        C536   1.481       .  S
Fe199       O210   1.943       .  S
Fe199       O215   2.104   1_545  S
Fe199       O212   2.061       .  S
Fe199       O204   2.094       .  S
Fe199      O1133   2.011   1_554  S
Fe200       O210   1.935       .  S
Fe200       O203   2.069       .  S
Fe200       O207   2.048   1_545  S
Fe200       O211   2.079       .  S
Fe200       O216   2.039       .  S
Fe201       O210   1.942       .  S
Fe201       O219   2.052       .  S
Fe201       O206   2.121       .  S
Fe201       O202   2.046       .  S
Fe201      O1141   2.117   1_554  S
O202        C209   1.264       .  A
O203        C217   1.267       .  A
O204        C209   1.272       .  A
O205      Fe1127   2.008       .  S
O205        C208   1.265       .  A
O206        C218   1.285       .  A
O207        C220   1.269       .  A
C208        O213   1.281       .  A
C208        C509   1.470       .  S
C209        C677   1.475       .  S
O211        C214   1.269   1_545  A
O212        C214   1.268   1_545  A
O213      Fe1129   2.118       .  S
C214        C521   1.474       .  S
O215        C220   1.280       .  A
O216        C218   1.273       .  A
C217        O219   1.261       .  A
C217        C497   1.489       .  S
C218        C572   1.481       .  S
C220        C485   1.486       .  S
Fe221       O232   1.961       .  S
Fe221       O237   2.071       .  S
Fe221       O227   2.103       .  S
Fe221       O234   2.094   1_455  S
Fe221      O1154   2.026       .  S
Fe222       O232   1.945       .  S
Fe222       O225   2.048       .  S
Fe222       O229   2.065       .  S
Fe222       O233   2.050       .  S
Fe222       O238   2.077       .  S
Fe223      O1160   1.935       .  S
Fe223       O228   2.041   1_556  S
Fe223       O224   2.091   1_556  S
Fe223      O1169   2.128       .  S
Fe223      O1163   2.047       .  S
O224        C231   1.278       .  A
O225        C239   1.272       .  A
O226      Fe1149   2.032   1_554  S
O226        C231   1.266       .  A
O227        C230   1.273       .  A
O228        C240   1.259   1_554  A
O229        C242   1.269       .  A
C230        O235   1.266       .  A
C230       C1524   1.486       .  S
C231        C461   1.477       .  S
O232      Fe1151   1.941       .  S
O233        C236   1.269   1_455  A
O234        C236   1.275       .  A
O235      Fe1151   2.053       .  S
C236       C1368   1.491       .  S
O237        C242   1.272       .  A
O238       C1168   1.266       .  A
C239        O241   1.286       .  A
C239        C449   1.490       .  S
C240       O1166   1.266       .  A
C240        C488   1.489   1_556  S
O241      Fe1151   2.129       .  S
C242        C476   1.475       .  S
Fe243       O254   1.959       .  S
Fe243       O259   2.077       .  S
Fe243       O249   2.105       .  S
Fe243       O256   2.097       .  S
Fe243       O248   2.032       .  S
Fe244       O254   1.933       .  S
Fe244       O247   2.047       .  S
Fe244       O251   2.048       .  S
Fe244       O255   2.047       .  S
Fe244       O260   2.061       .  S
Fe245       O254   1.942       .  S
Fe245       O263   2.129       .  S
Fe245       O250   2.053       .  S
Fe245       O257   2.037       .  S
Fe245       O246   2.111       .  S
O246        C253   1.283       .  A
O247        C261   1.270       .  A
O248        C253   1.268       .  A
O249        C252   1.273       .  A
O250        C262   1.263       .  A
O251        C264   1.265       .  A
C252        O257   1.264       .  A
C252        C608   1.479       .  S
C253        C524   1.481       .  S
O255        C258   1.269       .  A
O256        C258   1.277       .  A
C258        C581   1.483   1_565  S
O259        C264   1.273       .  A
O260        C262   1.265       .  A
C261        O263   1.284       .  A
C261        C452   1.489       .  S
C262        C428   1.483       .  S
C264        C512   1.478       .  S
Fe265       O276   1.965       .  S
Fe265       O281   2.118   1_655  S
Fe265       O271   2.029       .  S
Fe265       O278   2.076       .  S
Fe265       O270   2.138       .  S
Fe266       O276   1.927       .  S
Fe266       O269   2.074       .  S
Fe266       O273   2.027   1_655  S
Fe266       O277   2.052       .  S
Fe266       O282   2.041       .  S
Fe267       O276   1.927       .  S
Fe267       O285   2.048       .  S
Fe267       O272   2.123       .  S
Fe267       O279   2.114       .  S
Fe267       O268   2.036       .  S
O268        C275   1.260       .  A
O269        C283   1.268       .  A
O270        C275   1.279       .  A
O271        C274   1.265       .  A
O272        C284   1.283       .  A
O273        C286   1.268       .  A
C274        O279   1.279       .  A
C274        C473   1.477       .  S
C275        C800   1.496       .  S
O277        C280   1.268   1_655  A
O278        C280   1.274   1_655  A
C280        C464   1.475       .  S
O281        C286   1.281       .  A
O282        C284   1.269       .  A
C283        O285   1.264       .  A
C283        C413   1.477       .  S
C284        C404   1.487       .  S
C286        C425   1.480       .  S
Fe287       O298   1.955       .  S
Fe287       O303   2.107       .  S
Fe287       O300   2.065       .  S
Fe287       O292   2.110       .  S
Fe287      O1221   2.030   1_554  S
Fe288       O298   1.943       .  S
Fe288       O291   2.075       .  S
Fe288       O295   2.045       .  S
Fe288       O299   2.072       .  S
Fe288       O304   2.051       .  S
Fe289       O298   1.941       .  S
Fe289       O307   2.039       .  S
Fe289       O294   2.124       .  S
Fe289       O290   2.053       .  S
Fe289      O1229   2.105   1_554  S
O290        C297   1.266       .  A
O291        C305   1.266       .  A
O292        C297   1.275       .  A
O293      Fe1215   2.029       .  S
O293        C296   1.268       .  A
O294        C306   1.285       .  A
O295        C308   1.267       .  A
C296        O301   1.281       .  A
C296        C380   1.478       .  S
C297        C860   1.487       .  S
O299        C302   1.270       .  A
O300        C302   1.271       .  A
O301      Fe1217   2.106       .  S
C302        C389   1.473       .  S
O303        C308   1.278       .  A
O304        C306   1.272       .  A
C305        O307   1.261       .  A
C305        C437   1.475       .  S
C306        C401   1.489       .  S
C308        C368   1.479   1_565  S
Fe309       O320   1.948       .  S
Fe309       O325   2.067       .  S
Fe309       O315   2.112       .  S
Fe309       O322   2.110   1_655  S
Fe309      O1242   2.022       .  S
Fe310       O320   1.929       .  S
Fe310       O313   2.041       .  S
Fe310       O317   2.075       .  S
Fe310       O321   2.034   1_655  S
Fe310       O326   2.085       .  S
Fe311      O1248   1.937       .  S
Fe311       O316   2.048   1_556  S
Fe311       O312   2.123   1_556  S
Fe311      O1257   2.135       .  S
Fe311      O1251   2.035       .  S
O312        C319   1.281       .  A
O313        C327   1.270       .  A
O314      Fe1237   2.025   1_554  S
O314        C319   1.266       .  A
O315        C318   1.275       .  A
O316        C328   1.262       .  A
O317        C330   1.271       .  A
C318        O323   1.265       .  A
C318       C1644   1.487       .  S
C319        C560   1.479       .  S
O320      Fe1239   1.933       .  S
O321        C324   1.268       .  A
O322        C324   1.279       .  A
O323      Fe1239   2.029       .  S
C324       C1428   1.474       .  S
O325        C330   1.271       .  A
O326       C1256   1.271       .  A
C327        O329   1.283       .  A
C327        C356   1.485       .  S
C328       O1254   1.270   1_554  A
C328        C365   1.489       .  S
O329      Fe1239   2.125       .  S
C330        C548   1.475   1_655  S
Fe331       O342   1.951       .  S
Fe331       O347   2.065   1_545  S
Fe331       O337   2.093       .  S
Fe331       O344   2.098   1_545  S
Fe331       O336   2.035       .  S
Fe332       O342   1.943       .  S
Fe332       O335   2.047       .  S
Fe332       O339   2.061   1_545  S
Fe332       O343   2.043   1_545  S
Fe332       O348   2.067       .  S
Fe333       O342   1.943       .  S
Fe333       O351   2.114       .  S
Fe333       O338   2.054       .  S
Fe333       O345   2.039       .  S
Fe333       O334   2.102       .  S
O334        C341   1.278       .  A
O335        C349   1.271       .  A
O336        C341   1.268       .  A
O337        C340   1.272       .  A
O338        C350   1.265       .  A
O339        C352   1.265       .  A
C340        O345   1.266       .  A
C340        C737   1.473       .  S
C341        C392   1.481       .  S
O343        C346   1.270       .  A
O344        C346   1.279       .  A
C346        C416   1.483       .  S
O347        C352   1.268       .  A
O348        C350   1.266       .  A
C349        O351   1.282       .  A
C349        C353   1.487       .  S
C350        C533   1.484       .  S
C352        C377   1.470       .  S
C353        C354   1.407       .  A
C353        C358   1.414       .  A
C354        C355   1.403       .  A
C354        H359   1.087       .  S
C355        C356   1.413       .  A
C355        C362   1.444       .  S
C356        C357   1.406       .  A
C357        C358   1.403       .  A
C357        H360   1.087       .  S
C358        C361   1.444       .  S
C361        N363   1.157       .  T
C362        N364   1.157       .  T
C365        C366   1.406   1_554  A
C365        C370   1.420       .  A
C366        C367   1.399   1_556  A
C366        H371   1.085       .  S
C367        C368   1.412       .  A
C367        C374   1.444   1_544  S
C368        C369   1.401       .  A
C369        C370   1.401       .  A
C369        H372   1.086       .  S
C370        C373   1.445       .  S
C373        N375   1.157       .  T
C374        N376   1.157       .  T
C377        C378   1.407       .  A
C377        C382   1.405       .  A
C378        C379   1.401       .  A
C378        H383   1.083       .  S
C379        C380   1.409       .  A
C379        C386   1.444       .  S
C380        C381   1.409       .  A
C381        C382   1.397       .  A
C381        H384   1.083       .  S
C382        C385   1.445   1_565  S
C385        N387   1.157       .  T
C386        N388   1.157       .  T
C389        C390   1.407   1_565  A
C389        C394   1.405       .  A
C390        C391   1.400       .  A
C390        H395   1.085       .  S
C391        C392   1.410       .  A
C391        C398   1.444       .  S
C392        C393   1.410   1_545  A
C393        C394   1.399       .  A
C393        H396   1.084       .  S
C394        C397   1.444       .  S
C397        N399   1.157       .  T
C398        N400   1.157       .  T
C401        C402   1.404       .  A
C401        C406   1.416       .  A
C402        C403   1.405       .  A
C402        H407   1.088       .  S
C403        C404   1.415       .  A
C403        C410   1.445       .  S
C404        C405   1.403       .  A
C405        C406   1.405       .  A
C405        H408   1.088       .  S
C406        C409   1.442       .  S
C409        N411   1.157       .  T
C410        N412   1.157       .  T
C413        C414   1.403       .  A
C413        C418   1.411       .  A
C414        C415   1.398       .  A
C414        H419   1.085       .  S
C415        C416   1.415       .  A
C415        C422   1.445       .  S
C416        C417   1.408       .  A
C417        C418   1.401       .  A
C417        H420   1.084       .  S
C418        C421   1.445       .  S
C421        N423   1.157       .  T
C422        N424   1.157       .  T
C425        C426   1.404       .  A
C425        C430   1.412       .  A
C426        C427   1.394       .  A
C426        H431   1.084       .  S
C427        C428   1.413       .  A
C427        C434   1.445       .  S
C428        C429   1.409       .  A
C429        C430   1.404       .  A
C429        H432   1.083       .  S
C430        C433   1.444       .  S
C433        N435   1.157       .  T
C434        N436   1.157       .  T
C437        C442   1.408       .  A
C437       C1366   1.404   1_554  A
C438        C439   1.398       .  A
C438       C1365   1.403       .  A
C438        H443   1.081       .  S
C439       C1368   1.417       .  A
C439        C446   1.445       .  S
C440       C1164   1.486       .  S
C440        C441   1.409   1_556  A
C440       C1367   1.417       .  A
C441        C442   1.400       .  A
C441        H444   1.080       .  S
C442        C445   1.443       .  S
C445        N447   1.157       .  T
C446        N448   1.157       .  T
C449        C450   1.404       .  A
C449        C454   1.417       .  A
C450        C451   1.406       .  A
C450        H455   1.085       .  S
C451        C452   1.415       .  A
C451        C458   1.444       .  S
C452        C453   1.404       .  A
C453        C454   1.407       .  A
C453        H456   1.085       .  S
C454        C457   1.445       .  S
C457        N459   1.157       .  T
C458        N460   1.157       .  T
C461        C462   1.411       .  A
C461        C466   1.407       .  A
C462        C463   1.401       .  A
C462        H467   1.083       .  S
C463        C464   1.405       .  A
C463        C470   1.443   1_455  S
C464        C465   1.410       .  A
C465        C466   1.396       .  A
C465        H468   1.083       .  S
C466        C469   1.445       .  S
C469        N471   1.157       .  T
C470        N472   1.157       .  T
C473        C474   1.397       .  A
C473        C478   1.418   1_655  A
C474        C475   1.395       .  A
C474        H479   1.086       .  S
C475        C476   1.416   1_655  A
C475        C482   1.444       .  S
C476        C477   1.400       .  A
C477        C478   1.403       .  A
C477        H480   1.085       .  S
C478        C481   1.444       .  S
C481        N483   1.157       .  T
C482        N484   1.157       .  T
C485        C486   1.401       .  A
C485        C490   1.417       .  A
C486        C487   1.397       .  A
C486        H491   1.082       .  S
C487        C488   1.418       .  A
C487        C494   1.445       .  S
C488        C489   1.406   1_554  A
C489        C490   1.406   1_556  A
C489       H1420   1.082       .  S
C490       C1421   1.445   1_554  S
H492       C1417   1.082       .  S
C493       C1418   1.445       .  S
C493        N495   1.158       .  T
C494        N496   1.157       .  T
C497        C498   1.407       .  A
C497        C502   1.420   1_554  A
C498        C499   1.396       .  A
C498        H503   1.085       .  S
C499        C500   1.410   1_554  A
C499        C506   1.446       .  S
C500       C1252   1.474       .  S
C500       C1429   1.401       .  A
C501       C1428   1.401       .  A
C501       C1430   1.402       .  A
C501        H504   1.086       .  S
C502       C1429   1.402       .  A
C502       C1433   1.444       .  S
C505       C1430   1.444       .  S
C505        N507   1.158       .  T
C506        N508   1.157   1_455  T
C509        C510   1.400   1_545  A
C509        C514   1.408       .  A
C510        C511   1.387       .  A
C510        H515   1.086       .  S
C511        C512   1.416       .  A
C511        C518   1.448       .  S
C512        C513   1.408   1_565  A
C513        C514   1.409       .  A
C513        H516   1.083       .  S
C514        C517   1.441       .  S
C517        N519   1.157       .  T
C518        N520   1.158       .  T
C521        C522   1.398       .  A
C521        C526   1.414       .  A
C522        C523   1.400       .  A
C522        H527   1.087   1_565  S
C523        C524   1.420       .  A
C523        C530   1.445       .  S
C524        C525   1.401       .  A
C525        C526   1.399       .  A
C525        H528   1.087       .  S
C526        C529   1.444       .  S
C529        N531   1.157       .  T
C530        N532   1.157   1_565  T
C533        C534   1.406       .  A
C533        C538   1.415       .  A
C534        C535   1.400       .  A
C534        H539   1.081       .  S
C535        C536   1.412       .  A
C535        C542   1.444       .  S
C536        C537   1.405       .  A
C537        C538   1.399       .  A
C537        H540   1.082       .  S
C538        C541   1.445       .  S
C541        N543   1.157       .  T
C542        N544   1.157       .  T
C545        C546   1.410       .  A
C545        C550   1.410       .  A
C546        C547   1.401       .  A
C546        H551   1.087       .  S
C547        C548   1.406       .  A
C547        C554   1.444   1_455  S
C548        C549   1.406       .  A
C549        C550   1.399       .  A
C549        H552   1.088       .  S
C550        C553   1.444       .  S
C553        N555   1.157       .  T
C554        N556   1.157       .  T
C557        C558   1.410   1_455  A
C557        C562   1.417       .  A
C558        C559   1.413       .  A
C558        H563   1.084       .  S
C559        C560   1.412       .  A
C559        C566   1.442       .  S
C560        C561   1.399   1_655  A
C561        C562   1.390       .  A
C561        H564   1.086       .  S
C562        C565   1.447       .  S
C565        N567   1.157       .  T
C566        N568   1.157       .  T
C569        C570   1.407       .  A
C569        C574   1.411       .  A
C570        C571   1.403       .  A
C570        H575   1.087       .  S
C571        C572   1.412       .  A
C571        C578   1.445       .  S
C572        C573   1.406       .  A
C573        C574   1.401       .  A
C573        H576   1.087       .  S
C574        C577   1.444       .  S
C577        N579   1.157       .  T
C578        N580   1.157       .  T
C581        C582   1.406       .  A
C581        C586   1.413       .  A
C582        C583   1.401       .  A
C582        H587   1.083       .  S
C583        C584   1.415       .  A
C583        C590   1.444       .  S
C584        C585   1.406       .  A
C585        C586   1.398       .  A
C585        H588   1.083       .  S
C586        C589   1.444   1_545  S
C589        N591   1.157       .  T
C590        N592   1.157       .  T
C593        C594   1.393       .  A
C593       C1526   1.414       .  A
C594        C595   1.392       .  A
C594        H599   1.086       .  S
C595        C596   1.419       .  A
C595        C602   1.441       .  S
C596       C1158   1.482   1_554  S
C596       C1525   1.404   1_554  A
C597        C598   1.412       .  A
C597       C1524   1.405       .  A
C597        H600   1.083       .  S
C598       C1521   1.414       .  A
C598        C601   1.442       .  S
C601        N603   1.157       .  T
C602        N604   1.157       .  T
C605        C606   1.400       .  A
C605        C610   1.419       .  A
C606        C607   1.408       .  A
C606        H611   1.083       .  S
C607        C608   1.417       .  A
C607        C614   1.439       .  S
C608        C609   1.395       .  A
C609        C610   1.397       .  A
C609        H612   1.085       .  S
C610        C613   1.440       .  S
C613        N615   1.157       .  T
C614        N616   1.156       .  T
C617        C618   1.405       .  A
C617        C622   1.417       .  A
C618        C619   1.407       .  A
C618        H623   1.083       .  S
C619        C620   1.415       .  A
C619        C626   1.445       .  S
C620        C621   1.401       .  A
C621        C622   1.402       .  A
C621        H624   1.084       .  S
C622        C625   1.444       .  S
C625        N627   1.157       .  T
C626        N628   1.157       .  T
C629        C630   1.410       .  A
C629        C634   1.408       .  A
C630        C631   1.409       .  A
C630        H635   1.084       .  S
C631        C632   1.408       .  A
C631        C638   1.443       .  S
C632        C633   1.407       .  A
C633        C634   1.403       .  A
C633        H636   1.084       .  S
C634        C637   1.444       .  S
C637        N639   1.157       .  T
C638        N640   1.157       .  T
C641        C642   1.400       .  A
C641        C646   1.415       .  A
C642        C643   1.400       .  A
C642        H647   1.085       .  S
C643        C644   1.420       .  A
C643        C650   1.444       .  S
C644        C645   1.404       .  A
C645        C646   1.397       .  A
C645        H648   1.085       .  S
C646        C649   1.445       .  S
C649        N651   1.157       .  T
C650        N652   1.157       .  T
C653        C654   1.402       .  A
C653        C658   1.419       .  A
C654        C655   1.401       .  A
C654        H659   1.084       .  S
C655        C656   1.413       .  A
C655        C662   1.444       .  S
C656        C657   1.396       .  A
C657        C658   1.395       .  A
C657        H660   1.085       .  S
C658        C661   1.445       .  S
C661        N663   1.157       .  T
C662        N664   1.157       .  T
C665        C666   1.407       .  A
C665        C670   1.415       .  A
C666        C667   1.409       .  A
C666        H671   1.085       .  S
C667        C668   1.411       .  A
C667        C674   1.442       .  S
C668        C669   1.398       .  A
C669        C670   1.386       .  A
C669        H672   1.087       .  S
C670        C673   1.446       .  S
C673        N675   1.157       .  T
C674        N676   1.157       .  T
C677        C682   1.408       .  A
C677       C1606   1.407       .  A
C678        C679   1.407       .  A
C678       C1605   1.408       .  A
C678        H683   1.083       .  S
C679       C1608   1.406       .  A
C679        C686   1.442       .  S
C680       C1027   1.475   1_554  S
C680        C681   1.406       .  A
C680       C1607   1.406   1_554  A
C681        C682   1.401       .  A
C681        H684   1.085       .  S
C682        C685   1.444       .  S
C685        N687   1.157       .  T
C686        N688   1.157       .  T
C689        C690   1.406       .  A
C689        C694   1.412       .  A
C690        C691   1.403       .  A
C690        H695   1.083       .  S
C691        C692   1.413       .  A
C691        C698   1.443       .  S
C692        C693   1.405       .  A
C693        C694   1.402       .  A
C693        H696   1.084       .  S
C694        C697   1.442       .  S
C697        N699   1.156       .  T
C698        N700   1.157       .  T
C701        C706   1.415       .  A
C701       C1630   1.405       .  A
C702        C703   1.399       .  A
C702       C1629   1.406       .  A
C702        H707   1.084       .  S
C703       C1632   1.412       .  A
C703        C710   1.445       .  S
C704        C705   1.403       .  A
C704       C1631   1.411       .  A
C705        C706   1.398       .  A
C705        H708   1.085       .  S
C706        C709   1.445       .  S
C709        N711   1.157       .  T
C710        N712   1.157       .  T
C713        C714   1.406       .  A
C713        C718   1.419   1_554  A
C714        C715   1.415       .  A
C714        H719   1.086       .  S
C715        C716   1.417   1_554  A
C715        C722   1.442       .  S
C716       C1246   1.488       .  S
C716        C717   1.397       .  A
C717        C718   1.393       .  A
C717        H720   1.088       .  S
C718        C721   1.443       .  S
C721        N723   1.157       .  T
C722        N724   1.157       .  T
C725        C730   1.408       .  A
C725       C1654   1.401       .  A
C726        C727   1.404       .  A
C726       C1653   1.402       .  A
C726        H731   1.085       .  S
C727        C728   1.418       .  A
C727        C734   1.444       .  S
C728       C1657   1.406   1_554  A
C729        C730   1.398       .  A
C729       C1656   1.405       .  A
C729        H732   1.084       .  S
C730        C733   1.444       .  S
C733        N735   1.157       .  T
C734        N736   1.158       .  T
C737        C738   1.397       .  A
C737        C742   1.415       .  A
C738        C739   1.394       .  A
C738        H743   1.086       .  S
C739        C740   1.415       .  A
C739        C746   1.444       .  S
C740        C741   1.401       .  A
C741        C742   1.406       .  A
C741        H744   1.084       .  S
C742        C745   1.442       .  S
C745        N747   1.157       .  T
C746        N748   1.157       .  T
C749        C750   1.404       .  A
C749        C754   1.412       .  A
C750        C751   1.397       .  A
C750        H755   1.084       .  S
C751        C752   1.413       .  A
C751        C758   1.445       .  S
C752        C753   1.404       .  A
C753        C754   1.394       .  A
C753        H756   1.084       .  S
C754        C757   1.445       .  S
C757        N759   1.157       .  T
C758        N760   1.157       .  T
C761        C762   1.410       .  A
C761        C766   1.411       .  A
C762        C763   1.403       .  A
C762        H767   1.089       .  S
C763        C764   1.407       .  A
C763        C770   1.443       .  S
C764        C765   1.405       .  A
C765        C766   1.400       .  A
C765        H768   1.091       .  S
C766        C769   1.444       .  S
C769        N771   1.157       .  T
C770        N772   1.157       .  T
C773        C774   1.402       .  A
C773        C778   1.419       .  A
C774        C775   1.404       .  A
C774        H779   1.084       .  S
C775        C776   1.414       .  A
C775        C782   1.444       .  S
C776        C777   1.394       .  A
C777        C778   1.395       .  A
C777        H780   1.085       .  S
C778        C781   1.444       .  S
C781        N783   1.157       .  T
C782        N784   1.157       .  T
C785        C786   1.407       .  A
C785        C790   1.413       .  A
C786        C787   1.403       .  A
C786        H791   1.088       .  S
C787        C788   1.413       .  A
C787        C794   1.444       .  S
C788        C789   1.408       .  A
C789        C790   1.404       .  A
C789        H792   1.088       .  S
C790        C793   1.444       .  S
C793        N795   1.157       .  T
C794        N796   1.157       .  T
C797        C798   1.400       .  A
C797        C802   1.420       .  A
C798        C799   1.390       .  A
C798        H803   1.086       .  S
C799        C800   1.419       .  A
C799        C806   1.444       .  S
C800        C801   1.409       .  A
C801        C802   1.420       .  A
C801        H804   1.084       .  S
C802        C805   1.442       .  S
C805        N807   1.157       .  T
C806        N808   1.158       .  T
C809        C810   1.409       .  A
C809        C814   1.413       .  A
C810        C811   1.400       .  A
C810        H815   1.082       .  S
C811        C812   1.411       .  A
C811        C818   1.444       .  S
C812        C813   1.405       .  A
C813        C814   1.397       .  A
C813        H816   1.083       .  S
C814        C817   1.444       .  S
C817        N819   1.157       .  T
C818        N820   1.157       .  T
C821        C822   1.401       .  A
C821        C826   1.414       .  A
C822        C823   1.398       .  A
C822        H827   1.085       .  S
C823        C824   1.418       .  A
C823        C830   1.444       .  S
C824        C825   1.407       .  A
C825        C826   1.403       .  A
C825        H828   1.084       .  S
C826        C829   1.445       .  S
C829        N831   1.157       .  T
C830        N832   1.157       .  T
C833        C834   1.414       .  A
C833        C838   1.411       .  A
C834        C835   1.403       .  A
C834        H839   1.086       .  S
C835        C836   1.405       .  A
C835        C842   1.444       .  S
C836        C837   1.406       .  A
C837        C838   1.402       .  A
C837        H840   1.086       .  S
C838        C841   1.444       .  S
C841        N843   1.157       .  T
C842        N844   1.157       .  T
C845        C846   1.408       .  A
C845        C850   1.407       .  A
C846        C847   1.401       .  A
C846        H851   1.082       .  S
C847        C848   1.410       .  A
C847        C854   1.443       .  S
C848        C849   1.411       .  A
C849        C850   1.403       .  A
C849        H852   1.081       .  S
C850        C853   1.443       .  S
C853        N855   1.157       .  T
C854        N856   1.157       .  T
C857        C939   1.484       .  S
C857        C862   1.418   1_556  A
C857       C1786   1.397       .  A
C858       C1785   1.398       .  A
C858       C1787   1.404       .  A
C858        H863   1.086       .  S
C859        C860   1.417   1_556  A
C859       C1786   1.400       .  A
C859       C1794   1.440       .  S
C860        C861   1.402       .  A
C861        C862   1.411       .  A
C861        H864   1.085       .  S
C862        C865   1.440       .  S
C865        N867   1.156       .  T
C866       C1787   1.439       .  S
C866        N868   1.156       .  T
C869        C870   1.409       .  A
C869       C1802   1.417       .  A
C870        C871   1.402       .  A
C870        H875   1.084       .  S
C871       C1800   1.412       .  A
C871        C878   1.445       .  S
C872        C873   1.404       .  A
C872       C1799   1.412       .  A
C873        C874   1.400   1_554  A
C873        H876   1.085   1_554  S
C874       C1797   1.416       .  A
C874        C877   1.444       .  S
C877        N879   1.157       .  T
C878        N880   1.157       .  T
C881        C882   1.411       .  A
C881        C886   1.407       .  A
C882        C883   1.401       .  A
C882        H887   1.087       .  S
C883        C884   1.405       .  A
C883        C890   1.444       .  S
C884        C885   1.406       .  A
C885        C886   1.397       .  A
C885        H888   1.088       .  S
C886        C889   1.444       .  S
C889        N891   1.157       .  T
C890        N892   1.157       .  T
C893        C894   1.400       .  A
C893        C898   1.418       .  A
C894        C895   1.400       .  A
C894        H899   1.084       .  S
C895        C896   1.416       .  A
C895        C902   1.445       .  S
C896        C897   1.397       .  A
C897        C898   1.396       .  A
C897        H900   1.084       .  S
C898        C901   1.445       .  S
C901        N903   1.157       .  T
C902        N904   1.157       .  T
C905        C906   1.402       .  A
C905        C910   1.417       .  A
C906        C907   1.405       .  A
C906        H911   1.085       .  S
C907        C908   1.415       .  A
C907        C914   1.442       .  S
C908        C909   1.404       .  A
C909        C910   1.407       .  A
C909        H912   1.085       .  S
C910        C913   1.445       .  S
C913        N915   1.157       .  T
C914        N916   1.157       .  T
C917        C918   1.406       .  A
C917       C1850   1.412       .  A
C918        C919   1.401       .  A
C918        H923   1.084       .  S
C919        C920   1.413       .  A
C919        C926   1.444       .  S
C920       C1849   1.406       .  A
C921        C922   1.398       .  A
C921       C1848   1.407       .  A
C921        H924   1.085       .  S
C922       C1845   1.411       .  A
C922        C925   1.444       .  S
C925        N927   1.157       .  T
C926        N928   1.157       .  T
Fe929       O940   1.953       .  S
Fe929       O942   2.073       .  S
Fe929       O934   2.115       .  S
Fe930       O940   1.939       .  S
Fe930       O933   2.066       .  S
Fe930       O937   2.047       .  S
Fe930       O941   2.055       .  S
Fe930       O946   2.044       .  S
Fe931       O949   2.048       .  S
Fe931       O943   2.117       .  S
Fe931       O932   2.041       .  S
O934        C939   1.275       .  A
O935        C938   1.266       .  A
O936        C948   1.285       .  A
O937        C950   1.270       .  A
C938        O943   1.284       .  A
C938       C1809   1.477       .  S
O941        C944   1.266       .  A
O942        C944   1.272       .  A
C944       C1821   1.473       .  S
O946        C948   1.270       .  A
C947        O949   1.262       .  A
C947       C1845   1.484       .  S
C948       C1833   1.489       .  S
C950       C1797   1.491       .  S
Fe951       O962   1.955       .  S
Fe951       O967   2.108       .  S
Fe951       O957   2.026       .  S
Fe951       O964   2.068       .  S
Fe951       O956   2.123       .  S
Fe952       O962   1.928       .  S
Fe952       O955   2.077       .  S
Fe952       O959   2.038       .  S
Fe952       O963   2.066       .  S
Fe952       O968   2.049       .  S
Fe953       O962   1.928       .  S
Fe953       O971   2.051       .  S
Fe953       O958   2.130       .  S
Fe953       O965   2.130       .  S
Fe953       O954   2.030       .  S
O954        C961   1.263       .  A
O955        C969   1.271       .  A
O956        C961   1.275       .  A
O957        C960   1.267       .  A
O958        C970   1.283       .  A
O959        C972   1.269       .  A
C960        O965   1.285       .  A
C960       C1761   1.490       .  S
C961       C1725   1.500       .  S
O963        C966   1.270       .  A
O964        C966   1.272       .  A
C966       C1773   1.473       .  S
O967        C972   1.280       .  A
O968        C970   1.269       .  A
C969        O971   1.265       .  A
C969       C1749   1.483       .  S
C970       C1836   1.490       .  S
C972       C1737   1.484       .  S
Fe973       O984   1.960       .  S
Fe973       O989   2.074       .  S
Fe973       O979   2.095       .  S
Fe973       O986   2.091       .  S
Fe973       O978   2.042       .  S
Fe974       O984   1.943       .  S
Fe974       O977   2.049       .  S
Fe974       O981   2.062       .  S
Fe974       O985   2.044       .  S
Fe974       O990   2.077       .  S
Fe975       O984   1.941       .  S
Fe975       O993   2.128       .  S
Fe975       O980   2.044       .  S
Fe975       O987   2.043       .  S
Fe975       O976   2.101       .  S
O976        C983   1.279       .  A
O977        C991   1.272       .  A
O978        C983   1.268       .  A
O979        C982   1.273       .  A
O980        C992   1.261       .  A
O981        C994   1.267       .  A
C982        O987   1.266       .  A
C982       C1668   1.475       .  S
C983       C1689   1.486       .  S
O985        C988   1.270       .  A
O986        C988   1.277       .  A
C988       C1677   1.476       .  S
O989        C994   1.271       .  A
O990        C992   1.266       .  A
C991        O993   1.285       .  A
C991       C1713   1.490       .  S
C992       C1740   1.482       .  S
C994       C1701   1.480       .  S
Fe995      O1006   1.956       .  S
Fe995      O1011   2.082       .  S
Fe995      O1001   2.117       .  S
Fe995      O1008   2.109       .  S
Fe996      O1006   1.937       .  S
Fe996       O999   2.044       .  S
Fe996      O1003   2.067       .  S
Fe996      O1007   2.041       .  S
Fe996      O1012   2.085       .  S
Fe997      O1006   1.931       .  S
Fe997      O1015   2.130       .  S
Fe997      O1002   2.045       .  S
Fe997      O1009   2.041       .  S
O998       C1005   1.276       .  A
O999       C1013   1.273       .  A
O1000      C1005   1.266   1_554  A
O1001      C1004   1.278       .  A
O1002      C1014   1.261       .  A
O1003      C1016   1.268       .  A
C1004      O1009   1.265       .  A
C1004      C1641   1.488       .  S
C1005      C1776   1.479       .  S
O1007      C1010   1.272       .  A
O1008      C1010   1.281       .  A
C1010      C1848   1.485       .  S
O1011      C1016   1.272       .  A
O1012      C1014   1.267       .  A
C1013      O1015   1.286       .  A
C1013      C1716   1.494       .  S
C1014      C1656   1.484       .  S
C1016      C1764   1.478       .  S
Fe1017     O1028   1.952       .  S
Fe1017     O1030   2.079       .  S
Fe1017     O1022   2.105       .  S
Fe1018     O1028   1.939       .  S
Fe1018     O1021   2.071       .  S
Fe1018     O1025   2.040       .  S
Fe1018     O1029   2.071       .  S
Fe1018     O1034   2.045       .  S
Fe1019     O1037   2.051       .  S
Fe1019     O1031   2.103       .  S
Fe1019     O1020   2.046       .  S
O1022      C1027   1.275       .  A
O1023      C1026   1.267       .  A
O1024      C1036   1.278       .  A
O1025      C1038   1.267       .  A
C1026      O1031   1.279       .  A
C1026      C1704   1.472       .  S
O1029      C1032   1.269       .  A
O1030      C1032   1.271       .  A
C1032      C1692   1.482       .  S
O1034      C1036   1.270       .  A
C1035      O1037   1.265       .  A
C1035      C1632   1.478       .  S
C1036      C1620   1.482       .  S
C1038      C1653   1.473   1_556  S
Fe1039     O1050   1.952       .  S
Fe1039     O1055   2.100       .  S
Fe1039     O1045   2.033       .  S
Fe1039     O1052   2.081       .  S
Fe1039     O1044   2.104       .  S
Fe1040     O1050   1.935       .  S
Fe1040     O1043   2.060       .  S
Fe1040     O1047   2.041       .  S
Fe1040     O1051   2.053       .  S
Fe1040     O1056   2.047       .  S
Fe1041     O1050   1.940       .  S
Fe1041     O1059   2.052       .  S
Fe1041     O1046   2.110       .  S
Fe1041     O1053   2.098       .  S
Fe1041     O1042   2.046       .  S
O1042      C1049   1.265       .  A
O1043      C1057   1.265       .  A
O1044      C1049   1.275       .  A
O1045      C1048   1.268       .  A
O1046      C1058   1.280       .  A
O1047      C1060   1.268       .  A
C1048      O1053   1.278       .  A
C1048      C1584   1.470       .  S
C1049      C1557   1.480       .  S
O1051      C1054   1.266       .  A
O1052      C1054   1.273       .  A
C1054      C1593   1.477       .  S
O1055      C1060   1.279       .  A
O1056      C1058   1.270       .  A
C1057      O1059   1.264       .  A
C1057      C1680   1.478       .  S
C1058      C1617   1.481       .  S
C1060      C1572   1.487       .  S
Fe1061     O1072   1.958       .  S
Fe1061     O1077   2.071       .  S
Fe1061     O1067   2.108       .  S
Fe1061     O1074   2.103       .  S
Fe1061     O1066   2.028       .  S
Fe1062     O1072   1.940       .  S
Fe1062     O1065   2.040       .  S
Fe1062     O1069   2.064       .  S
Fe1062     O1073   2.041       .  S
Fe1062     O1078   2.076       .  S
Fe1063     O1072   1.942       .  S
Fe1063     O1081   2.126       .  S
Fe1063     O1068   2.040       .  S
Fe1063     O1075   2.049       .  S
Fe1063     O1064   2.095       .  S
O1064      C1071   1.280       .  A
O1065      C1079   1.271       .  A
O1066      C1071   1.266       .  A
O1067      C1070   1.275       .  A
O1068      C1080   1.260       .  A
O1069      C1082   1.269       .  A
C1070      O1075   1.266       .  A
C1070      C1533   1.485       .  S
C1071      C1824   1.473       .  S
O1073      C1076   1.268       .  A
O1074      C1076   1.277       .  A
C1076      C1752   1.485       .  S
O1077      C1082   1.272       .  A
O1078      C1080   1.267       .  A
C1079      O1081   1.285       .  A
C1079      C1545   1.486       .  S
C1080      C1569   1.476       .  S
C1082      C1812   1.475       .  S
Fe1083     O1094   1.959       .  S
Fe1083     O1099   2.069       .  S
Fe1083     O1089   2.091       .  S
Fe1083     O1096   2.092       .  S
Fe1084     O1094   1.944       .  S
Fe1084     O1087   2.049       .  S
Fe1084     O1091   2.061       .  S
Fe1084     O1095   2.047       .  S
Fe1084     O1100   2.070       .  S
Fe1085     O1094   1.951       .  S
Fe1085     O1103   2.114       .  S
Fe1085     O1090   2.055       .  S
Fe1085     O1097   2.040       .  S
O1086      C1093   1.278       .  A
O1087      C1101   1.271       .  A
O1088      C1093   1.266       .  A
O1089      C1092   1.270       .  A
O1090      C1102   1.264       .  A
O1091      C1104   1.267       .  A
C1092      O1097   1.266       .  A
C1092      C1521   1.476       .  S
C1093      C1596   1.474       .  S
O1095      C1098   1.269       .  A
O1096      C1098   1.275       .  A
C1098      C1629   1.483       .  S
O1099      C1104   1.271       .  A
O1100      C1102   1.266       .  A
C1101      O1103   1.282       .  A
C1101      C1548   1.483       .  S
C1102      C1800   1.484       .  S
C1104      C1581   1.477       .  S
Fe1105     O1116   1.955       .  S
Fe1105     O1121   2.097   1_455  S
Fe1105     O1111   2.044       .  S
Fe1105     O1118   2.088       .  S
Fe1105     O1110   2.102       .  S
Fe1106     O1116   1.931       .  S
Fe1106     O1109   2.065       .  S
Fe1106     O1113   2.033       .  S
Fe1106     O1117   2.054       .  S
Fe1106     O1122   2.040       .  S
Fe1107     O1116   1.939       .  S
Fe1107     O1125   2.058       .  S
Fe1107     O1112   2.120       .  S
Fe1107     O1119   2.110       .  S
Fe1107     O1108   2.047       .  S
O1108      C1115   1.264       .  A
O1109      C1123   1.265       .  A
O1110      C1115   1.274       .  A
O1111      C1114   1.270       .  A
O1112      C1124   1.283       .  A
O1113      C1126   1.268   1_455  A
C1114      O1119   1.282       .  A
C1114      C1473   1.484       .  S
C1115      C1560   1.478       .  S
O1117      C1120   1.266       .  A
O1118      C1120   1.275       .  A
C1120      C1485   1.486       .  S
O1121      C1126   1.277       .  A
O1122      C1124   1.270       .  A
C1123      O1125   1.264       .  A
C1123      C1512   1.487       .  S
C1124      C1497   1.482       .  S
C1126      C1464   1.470       .  S
Fe1127     O1138   1.945       .  S
Fe1127     O1143   2.105   1_545  S
Fe1127     O1140   2.057       .  S
Fe1127     O1132   2.097       .  S
Fe1128     O1138   1.936       .  S
Fe1128     O1131   2.072       .  S
Fe1128     O1135   2.048   1_545  S
Fe1128     O1139   2.076       .  S
Fe1128     O1144   2.039       .  S
Fe1129     O1138   1.943       .  S
Fe1129     O1147   2.051       .  S
Fe1129     O1134   2.122       .  S
Fe1129     O1130   2.048       .  S
O1130      C1137   1.264       .  A
O1131      C1145   1.268       .  A
O1132      C1137   1.272       .  A
O1133      C1136   1.265       .  A
O1134      C1146   1.284       .  A
O1135      C1148   1.269       .  A
C1136      O1141   1.281       .  A
C1136      C1437   1.473       .  S
C1137      C1605   1.478       .  S
O1139      C1142   1.270   1_545  A
O1140      C1142   1.268   1_545  A
C1142      C1449   1.471       .  S
O1143      C1148   1.279       .  A
O1144      C1146   1.272       .  A
C1145      O1147   1.262       .  A
C1145      C1425   1.490       .  S
C1146      C1500   1.482       .  S
C1148      C1413   1.493       .  S
Fe1149     O1160   1.958       .  S
Fe1149     O1165   2.075       .  S
Fe1149     O1155   2.098       .  S
Fe1149     O1162   2.091   1_455  S
Fe1150     O1160   1.947       .  S
Fe1150     O1153   2.048       .  S
Fe1150     O1157   2.065       .  S
Fe1150     O1161   2.047       .  S
Fe1150     O1166   2.087       .  S
Fe1151     O1156   2.047       .  S
Fe1151     O1152   2.103       .  S
O1152      C1159   1.282       .  A
O1153      C1167   1.273       .  A
O1154      C1159   1.267       .  A
O1155      C1158   1.274       .  A
O1156      C1168   1.261       .  A
O1157      C1170   1.268       .  A
C1158      O1163   1.267       .  A
C1159      C1389   1.478       .  S
O1161      C1164   1.272   1_455  A
O1162      C1164   1.276       .  A
O1165      C1170   1.272       .  A
C1167      O1169   1.287       .  A
C1167      C1377   1.489       .  S
C1168      C1416   1.485       .  S
C1170      C1404   1.480       .  S
Fe1171     O1182   1.960       .  S
Fe1171     O1187   2.079       .  S
Fe1171     O1177   2.110       .  S
Fe1171     O1184   2.101       .  S
Fe1171     O1176   2.031       .  S
Fe1172     O1182   1.935       .  S
Fe1172     O1175   2.043       .  S
Fe1172     O1179   2.052       .  S
Fe1172     O1183   2.045       .  S
Fe1172     O1188   2.059       .  S
Fe1173     O1182   1.944       .  S
Fe1173     O1191   2.126       .  S
Fe1173     O1178   2.052       .  S
Fe1173     O1185   2.038       .  S
Fe1173     O1174   2.109       .  S
O1174      C1181   1.282       .  A
O1175      C1189   1.270       .  A
O1176      C1181   1.267       .  A
O1177      C1180   1.275       .  A
O1178      C1190   1.262       .  A
O1179      C1192   1.266       .  A
C1180      O1185   1.264       .  A
C1180      C1536   1.481       .  S
C1181      C1452   1.479       .  S
O1183      C1186   1.269       .  A
O1184      C1186   1.278       .  A
C1186      C1509   1.482   1_565  S
O1187      C1192   1.274       .  A
O1188      C1190   1.264       .  A
C1189      O1191   1.284       .  A
C1189      C1380   1.485       .  S
C1190      C1356   1.479       .  S
C1192      C1440   1.480       .  S
Fe1193     O1204   1.965       .  S
Fe1193     O1209   2.114   1_655  S
Fe1193     O1199   2.035       .  S
Fe1193     O1206   2.081       .  S
Fe1193     O1198   2.136       .  S
Fe1194     O1204   1.925       .  S
Fe1194     O1197   2.075       .  S
Fe1194     O1201   2.024   1_655  S
Fe1194     O1205   2.051       .  S
Fe1194     O1210   2.045       .  S
Fe1195     O1204   1.925       .  S
Fe1195     O1213   2.047       .  S
Fe1195     O1200   2.115       .  S
Fe1195     O1207   2.117       .  S
Fe1195     O1196   2.034       .  S
O1196      C1203   1.258       .  A
O1197      C1211   1.268       .  A
O1198      C1203   1.277       .  A
O1199      C1202   1.267       .  A
O1200      C1212   1.280       .  A
O1201      C1214   1.268       .  A
C1202      O1207   1.279       .  A
C1202      C1401   1.479       .  S
C1203      C1728   1.494       .  S
O1205      C1208   1.267   1_655  A
O1206      C1208   1.275   1_655  A
C1208      C1392   1.475       .  S
O1209      C1214   1.281       .  A
O1210      C1212   1.268       .  A
C1211      O1213   1.265       .  A
C1211      C1341   1.477       .  S
C1212      C1332   1.483       .  S
C1214      C1353   1.481       .  S
Fe1215     O1226   1.956       .  S
Fe1215     O1231   2.104   1_565  S
Fe1215     O1228   2.069       .  S
Fe1215     O1220   2.104       .  S
Fe1216     O1226   1.942       .  S
Fe1216     O1219   2.076       .  S
Fe1216     O1223   2.039       .  S
Fe1216     O1227   2.074       .  S
Fe1216     O1232   2.045       .  S
Fe1217     O1226   1.944       .  S
Fe1217     O1235   2.047       .  S
Fe1217     O1222   2.121       .  S
Fe1217     O1218   2.054       .  S
O1218      C1225   1.266       .  A
O1219      C1233   1.267       .  A
O1220      C1225   1.273       .  A
O1221      C1224   1.267       .  A
O1222      C1234   1.284       .  A
O1223      C1236   1.265       .  A
C1224      O1229   1.281       .  A
C1224      C1308   1.479       .  S
C1225      C1788   1.484       .  S
O1227      C1230   1.271       .  A
O1228      C1230   1.272       .  A
C1230      C1317   1.477       .  S
O1231      C1236   1.276   1_545  A
O1232      C1234   1.271       .  A
C1233      O1235   1.263       .  A
C1233      C1365   1.479       .  S
C1234      C1329   1.487       .  S
C1236      C1296   1.475   1_565  S
Fe1237     O1248   1.951       .  S
Fe1237     O1253   2.075       .  S
Fe1237     O1243   2.112       .  S
Fe1237     O1250   2.110   1_655  S
Fe1238     O1248   1.931       .  S
Fe1238     O1241   2.038       .  S
Fe1238     O1245   2.074       .  S
Fe1238     O1249   2.032       .  S
Fe1238     O1254   2.082       .  S
Fe1239     O1244   2.045       .  S
Fe1239     O1240   2.118       .  S
O1240      C1247   1.279       .  A
O1241      C1255   1.269       .  A
O1242      C1247   1.266       .  A
O1243      C1246   1.276       .  A
O1244      C1256   1.262       .  A
O1245      C1258   1.270       .  A
C1246      O1251   1.266       .  A
C1247      C1488   1.475       .  S
O1249      C1252   1.267   1_655  A
O1250      C1252   1.279       .  A
O1253      C1258   1.272       .  A
C1255      O1257   1.286       .  A
C1255      C1284   1.488       .  S
C1256      C1293   1.489       .  S
C1258      C1476   1.482   1_655  S
Fe1259     O1270   1.951       .  S
Fe1259     O1275   2.070   1_545  S
Fe1259     O1265   2.094       .  S
Fe1259     O1272   2.095   1_545  S
Fe1259     O1264   2.039       .  S
Fe1260     O1270   1.943       .  S
Fe1260     O1263   2.048       .  S
Fe1260     O1267   2.060   1_545  S
Fe1260     O1271   2.046   1_545  S
Fe1260     O1276   2.061       .  S
Fe1261     O1270   1.943       .  S
Fe1261     O1279   2.121       .  S
Fe1261     O1266   2.050       .  S
Fe1261     O1273   2.040       .  S
Fe1261     O1262   2.105       .  S
O1262      C1269   1.279       .  A
O1263      C1277   1.271       .  A
O1264      C1269   1.268       .  A
O1265      C1268   1.272       .  A
O1266      C1278   1.263       .  A
O1267      C1280   1.265       .  A
C1268      O1273   1.266       .  A
C1268      C1665   1.473       .  S
C1269      C1320   1.482       .  S
O1271      C1274   1.270       .  A
O1272      C1274   1.278       .  A
C1274      C1344   1.484       .  S
O1275      C1280   1.270       .  A
O1276      C1278   1.264       .  A
C1277      O1279   1.283       .  A
C1277      C1281   1.490       .  S
C1278      C1461   1.483       .  S
C1280      C1305   1.473       .  S
C1281      C1282   1.408       .  A
C1281      C1286   1.414       .  A
C1282      C1283   1.405       .  A
C1282      H1287   1.087       .  S
C1283      C1284   1.413       .  A
C1283      C1290   1.443       .  S
C1284      C1285   1.407       .  A
C1285      C1286   1.405       .  A
C1285      H1288   1.087       .  S
C1286      C1289   1.444       .  S
C1289      N1291   1.157       .  T
C1290      N1292   1.157       .  T
C1293      C1294   1.407       .  A
C1293      C1298   1.421       .  A
C1294      C1295   1.398       .  A
C1294      H1299   1.085       .  S
C1295      C1296   1.410       .  A
C1295      C1302   1.445   1_545  S
C1296      C1297   1.400       .  A
C1297      C1298   1.401       .  A
C1297      H1300   1.086       .  S
C1298      C1301   1.445       .  S
C1301      N1303   1.158       .  T
C1302      N1304   1.157       .  T
C1305      C1306   1.407       .  A
C1305      C1310   1.406       .  A
C1306      C1307   1.401       .  A
C1306      H1311   1.083       .  S
C1307      C1308   1.409       .  A
C1307      C1314   1.444       .  S
C1308      C1309   1.409       .  A
C1309      C1310   1.400       .  A
C1309      H1312   1.083       .  S
C1310      C1313   1.444   1_565  S
C1313      N1315   1.157       .  T
C1314      N1316   1.157       .  T
C1317      C1318   1.407   1_565  A
C1317      C1322   1.407       .  A
C1318      C1319   1.400       .  A
C1318      H1323   1.085       .  S
C1319      C1320   1.410       .  A
C1319      C1326   1.444       .  S
C1320      C1321   1.410   1_545  A
C1321      C1322   1.402       .  A
C1321      H1324   1.084       .  S
C1322      C1325   1.444       .  S
C1325      N1327   1.157       .  T
C1326      N1328   1.157       .  T
C1329      C1330   1.404       .  A
C1329      C1334   1.416       .  A
C1330      C1331   1.404       .  A
C1330      H1335   1.088       .  S
C1331      C1332   1.414       .  A
C1331      C1338   1.444       .  S
C1332      C1333   1.402       .  A
C1333      C1334   1.403       .  A
C1333      H1336   1.089       .  S
C1334      C1337   1.443       .  S
C1337      N1339   1.157       .  T
C1338      N1340   1.157       .  T
C1341      C1342   1.402       .  A
C1341      C1346   1.411       .  A
C1342      C1343   1.397       .  A
C1342      H1347   1.085       .  S
C1343      C1344   1.415       .  A
C1343      C1350   1.445       .  S
C1344      C1345   1.408       .  A
C1345      C1346   1.402       .  A
C1345      H1348   1.084       .  S
C1346      C1349   1.445       .  S
C1349      N1351   1.157       .  T
C1350      N1352   1.157       .  T
C1353      C1354   1.405       .  A
C1353      C1358   1.413       .  A
C1354      C1355   1.393       .  A
C1354      H1359   1.084       .  S
C1355      C1356   1.411       .  A
C1355      C1362   1.445       .  S
C1356      C1357   1.408       .  A
C1357      C1358   1.403       .  A
C1357      H1360   1.083       .  S
C1358      C1361   1.444       .  S
C1361      N1363   1.157       .  T
C1362      N1364   1.157       .  T
C1365      C1370   1.410       .  A
C1366      C1367   1.397       .  A
C1366      H1371   1.081       .  S
C1367      C1374   1.445       .  S
C1368      C1369   1.410       .  A
C1369      C1370   1.402       .  A
C1369      H1372   1.080       .  S
C1370      C1373   1.444       .  S
C1373      N1375   1.157       .  T
C1374      N1376   1.158       .  T
C1377      C1378   1.404       .  A
C1377      C1382   1.417       .  A
C1378      C1379   1.405       .  A
C1378      H1383   1.085       .  S
C1379      C1380   1.414       .  A
C1379      C1386   1.444       .  S
C1380      C1381   1.403       .  A
C1381      C1382   1.406       .  A
C1381      H1384   1.085       .  S
C1382      C1385   1.445       .  S
C1385      N1387   1.157       .  T
C1386      N1388   1.157       .  T
C1389      C1390   1.411       .  A
C1389      C1394   1.406       .  A
C1390      C1391   1.401       .  A
C1390      H1395   1.083       .  S
C1391      C1392   1.405       .  A
C1391      C1398   1.443   1_455  S
C1392      C1393   1.410       .  A
C1393      C1394   1.397       .  A
C1393      H1396   1.084       .  S
C1394      C1397   1.444       .  S
C1397      N1399   1.157       .  T
C1398      N1400   1.157       .  T
C1401      C1402   1.398       .  A
C1401      C1406   1.416   1_655  A
C1402      C1403   1.398       .  A
C1402      H1407   1.086       .  S
C1403      C1404   1.418   1_655  A
C1403      C1410   1.445       .  S
C1404      C1405   1.401       .  A
C1405      C1406   1.404       .  A
C1405      H1408   1.085       .  S
C1406      C1409   1.444       .  S
C1409      N1411   1.157       .  T
C1410      N1412   1.157       .  T
C1413      C1414   1.406       .  A
C1413      C1418   1.420       .  A
C1414      C1415   1.399       .  A
C1414      H1419   1.082       .  S
C1415      C1416   1.414       .  A
C1415      C1422   1.445       .  S
C1416      C1417   1.403       .  A
C1417      C1418   1.404       .  A
C1421      N1423   1.158   1_565  T
C1422      N1424   1.157       .  T
C1425      C1426   1.407       .  A
C1425      C1430   1.421       .  A
C1426      C1427   1.396       .  A
C1426      H1431   1.085       .  S
C1427      C1428   1.410       .  A
C1427      C1434   1.445       .  S
C1429      H1432   1.086       .  S
C1433      N1435   1.157       .  T
C1434      N1436   1.157       .  T
C1437      C1438   1.401   1_545  A
C1437      C1442   1.409       .  A
C1438      C1439   1.388       .  A
C1438      H1443   1.086       .  S
C1439      C1440   1.416       .  A
C1439      C1446   1.447       .  S
C1440      C1441   1.409   1_565  A
C1441      C1442   1.409       .  A
C1441      H1444   1.083       .  S
C1442      C1445   1.441       .  S
C1445      N1447   1.157       .  T
C1446      N1448   1.158       .  T
C1449      C1450   1.397       .  A
C1449      C1454   1.414       .  A
C1450      C1451   1.398       .  A
C1450      H1455   1.087   1_565  S
C1451      C1452   1.420       .  A
C1451      C1458   1.445       .  S
C1452      C1453   1.401       .  A
C1453      C1454   1.399       .  A
C1453      H1456   1.087       .  S
C1454      C1457   1.444       .  S
C1457      N1459   1.157       .  T
C1458      N1460   1.157   1_565  T
C1461      C1462   1.408       .  A
C1461      C1466   1.417       .  A
C1462      C1463   1.399       .  A
C1462      H1467   1.081       .  S
C1463      C1464   1.409       .  A
C1463      C1470   1.445       .  S
C1464      C1465   1.400       .  A
C1465      C1466   1.395       .  A
C1465      H1468   1.082       .  S
C1466      C1469   1.445       .  S
C1469      N1471   1.157       .  T
C1470      N1472   1.157       .  T
C1473      C1474   1.410       .  A
C1473      C1478   1.410       .  A
C1474      C1475   1.405       .  A
C1474      H1479   1.087       .  S
C1475      C1476   1.408       .  A
C1475      C1482   1.443   1_455  S
C1476      C1477   1.407       .  A
C1477      C1478   1.400       .  A
C1477      H1480   1.088       .  S
C1478      C1481   1.444       .  S
C1481      N1483   1.157       .  T
C1482      N1484   1.157       .  T
C1485      C1486   1.410   1_455  A
C1485      C1490   1.418       .  A
C1486      C1487   1.412       .  A
C1486      H1491   1.084       .  S
C1487      C1488   1.411       .  A
C1487      C1494   1.442       .  S
C1488      C1489   1.398   1_655  A
C1489      C1490   1.389       .  A
C1489      H1492   1.086       .  S
C1490      C1493   1.447       .  S
C1493      N1495   1.157       .  T
C1494      N1496   1.157       .  T
C1497      C1498   1.407       .  A
C1497      C1502   1.411       .  A
C1498      C1499   1.404       .  A
C1498      H1503   1.086       .  S
C1499      C1500   1.412       .  A
C1499      C1506   1.445       .  S
C1500      C1501   1.406       .  A
C1501      C1502   1.402       .  A
C1501      H1504   1.087       .  S
C1502      C1505   1.444       .  S
C1505      N1507   1.157       .  T
C1506      N1508   1.157       .  T
C1509      C1510   1.404       .  A
C1509      C1514   1.413       .  A
C1510      C1511   1.401       .  A
C1510      H1515   1.083       .  S
C1511      C1512   1.416       .  A
C1511      C1518   1.444       .  S
C1512      C1513   1.407       .  A
C1513      C1514   1.399       .  A
C1513      H1516   1.083       .  S
C1514      C1517   1.445   1_545  S
C1517      N1519   1.157       .  T
C1518      N1520   1.157       .  T
C1521      C1522   1.392       .  A
C1522      C1523   1.394       .  A
C1522      H1527   1.085       .  S
C1523      C1524   1.419       .  A
C1523      C1530   1.439       .  S
C1525      C1526   1.410   1_556  A
C1525      H1528   1.083       .  S
C1526      C1529   1.442   1_554  S
C1529      N1531   1.157       .  T
C1530      N1532   1.156       .  T
C1533      C1534   1.399       .  A
C1533      C1538   1.419       .  A
C1534      C1535   1.408       .  A
C1534      H1539   1.084       .  S
C1535      C1536   1.417       .  A
C1535      C1542   1.438       .  S
C1536      C1537   1.396       .  A
C1537      C1538   1.400       .  A
C1537      H1540   1.085       .  S
C1538      C1541   1.440       .  S
C1541      N1543   1.156       .  T
C1542      N1544   1.155       .  T
C1545      C1546   1.405       .  A
C1545      C1550   1.416       .  A
C1546      C1547   1.407       .  A
C1546      H1551   1.083       .  S
C1547      C1548   1.414       .  A
C1547      C1554   1.445       .  S
C1548      C1549   1.401       .  A
C1549      C1550   1.402       .  A
C1549      H1552   1.084       .  S
C1550      C1553   1.444       .  S
C1553      N1555   1.157       .  T
C1554      N1556   1.157       .  T
C1557      C1558   1.410       .  A
C1557      C1562   1.408       .  A
C1558      C1559   1.407       .  A
C1558      H1563   1.085       .  S
C1559      C1560   1.407       .  A
C1559      C1566   1.443       .  S
C1560      C1561   1.406       .  A
C1561      C1562   1.402       .  A
C1561      H1564   1.085       .  S
C1562      C1565   1.444       .  S
C1565      N1567   1.157       .  T
C1566      N1568   1.157       .  T
C1569      C1570   1.400       .  A
C1569      C1574   1.413       .  A
C1570      C1571   1.401       .  A
C1570      H1575   1.085       .  S
C1571      C1572   1.420       .  A
C1571      C1578   1.444       .  S
C1572      C1573   1.405       .  A
C1573      C1574   1.396       .  A
C1573      H1576   1.085       .  S
C1574      C1577   1.445       .  S
C1577      N1579   1.157       .  T
C1578      N1580   1.157       .  T
C1581      C1582   1.401       .  A
C1581      C1586   1.419       .  A
C1582      C1583   1.402       .  A
C1582      H1587   1.084       .  S
C1583      C1584   1.414       .  A
C1583      C1590   1.444       .  S
C1584      C1585   1.396       .  A
C1585      C1586   1.396       .  A
C1585      H1588   1.085       .  S
C1586      C1589   1.445       .  S
C1589      N1591   1.157       .  T
C1590      N1592   1.157       .  T
C1593      C1594   1.409       .  A
C1593      C1598   1.414       .  A
C1594      C1595   1.411       .  A
C1594      H1599   1.085       .  S
C1595      C1596   1.411       .  A
C1595      C1602   1.442       .  S
C1596      C1597   1.399       .  A
C1597      C1598   1.386       .  A
C1597      H1600   1.088       .  S
C1598      C1601   1.446       .  S
C1601      N1603   1.157       .  T
C1602      N1604   1.157       .  T
C1605      C1610   1.408       .  A
C1606      C1607   1.405   1_554  A
C1606      H1611   1.084   1_554  S
C1607      C1614   1.442       .  S
C1608      C1609   1.407       .  A
C1609      C1610   1.402       .  A
C1609      H1612   1.084       .  S
C1610      C1613   1.444       .  S
C1613      N1615   1.157       .  T
C1614      N1616   1.157       .  T
C1617      C1618   1.406       .  A
C1617      C1622   1.411       .  A
C1618      C1619   1.404       .  A
C1618      H1623   1.083       .  S
C1619      C1620   1.413       .  A
C1619      C1626   1.444       .  S
C1620      C1621   1.404       .  A
C1621      C1622   1.400       .  A
C1621      H1624   1.084       .  S
C1622      C1625   1.442       .  S
C1625      N1627   1.156       .  T
C1626      N1628   1.157       .  T
C1629      C1634   1.416       .  A
C1630      C1631   1.397       .  A
C1630      H1635   1.085       .  S
C1631      C1638   1.445       .  S
C1632      C1633   1.403       .  A
C1633      C1634   1.399       .  A
C1633      H1636   1.084       .  S
C1634      C1637   1.445       .  S
C1637      N1639   1.157       .  T
C1638      N1640   1.157   1_554  T
C1641      C1642   1.406       .  A
C1641      C1646   1.418       .  A
C1642      C1643   1.415       .  A
C1642      H1647   1.086       .  S
C1643      C1644   1.418       .  A
C1643      C1650   1.442       .  S
C1644      C1645   1.398       .  A
C1645      C1646   1.391       .  A
C1645      H1648   1.088       .  S
C1646      C1649   1.445       .  S
C1649      N1651   1.157       .  T
C1650      N1652   1.157       .  T
C1653      C1658   1.408   1_554  A
C1654      C1655   1.403       .  A
C1654      H1659   1.085       .  S
C1655      C1656   1.417       .  A
C1655      C1662   1.444       .  S
C1657      C1658   1.399       .  A
C1657      H1660   1.084       .  S
C1658      C1661   1.443       .  S
C1661      N1663   1.157       .  T
C1662      N1664   1.157       .  T
C1665      C1666   1.396       .  A
C1665      C1670   1.415       .  A
C1666      C1667   1.395       .  A
C1666      H1671   1.086       .  S
C1667      C1668   1.416       .  A
C1667      C1674   1.444       .  S
C1668      C1669   1.401       .  A
C1669      C1670   1.407       .  A
C1669      H1672   1.084       .  S
C1670      C1673   1.442       .  S
C1673      N1675   1.157       .  T
C1674      N1676   1.157       .  T
C1677      C1678   1.404       .  A
C1677      C1682   1.412       .  A
C1678      C1679   1.397       .  A
C1678      H1683   1.084       .  S
C1679      C1680   1.414       .  A
C1679      C1686   1.445       .  S
C1680      C1681   1.405       .  A
C1681      C1682   1.397       .  A
C1681      H1684   1.084       .  S
C1682      C1685   1.445       .  S
C1685      N1687   1.157       .  T
C1686      N1688   1.157       .  T
C1689      C1690   1.410       .  A
C1689      C1694   1.410       .  A
C1690      C1691   1.404       .  A
C1690      H1695   1.088       .  S
C1691      C1692   1.407       .  A
C1691      C1698   1.443       .  S
C1692      C1693   1.405       .  A
C1693      C1694   1.400       .  A
C1693      H1696   1.090       .  S
C1694      C1697   1.444       .  S
C1697      N1699   1.157       .  T
C1698      N1700   1.157       .  T
C1701      C1702   1.402       .  A
C1701      C1706   1.419       .  A
C1702      C1703   1.404       .  A
C1702      H1707   1.084       .  S
C1703      C1704   1.414       .  A
C1703      C1710   1.444       .  S
C1704      C1705   1.395       .  A
C1705      C1706   1.396       .  A
C1705      H1708   1.085       .  S
C1706      C1709   1.444       .  S
C1709      N1711   1.157       .  T
C1710      N1712   1.157       .  T
C1713      C1714   1.408       .  A
C1713      C1718   1.412       .  A
C1714      C1715   1.407       .  A
C1714      H1719   1.087       .  S
C1715      C1716   1.414       .  A
C1715      C1722   1.443       .  S
C1716      C1717   1.408       .  A
C1717      C1718   1.403       .  A
C1717      H1720   1.088       .  S
C1718      C1721   1.443       .  S
C1721      N1723   1.157       .  T
C1722      N1724   1.157       .  T
C1725      C1726   1.402       .  A
C1725      C1730   1.420       .  A
C1726      C1727   1.389       .  A
C1726      H1731   1.086       .  S
C1727      C1728   1.418       .  A
C1727      C1734   1.446       .  S
C1728      C1729   1.409       .  A
C1729      C1730   1.420       .  A
C1729      H1732   1.084       .  S
C1730      C1733   1.442       .  S
C1733      N1735   1.157       .  T
C1734      N1736   1.158       .  T
C1737      C1738   1.408       .  A
C1737      C1742   1.413       .  A
C1738      C1739   1.400       .  A
C1738      H1743   1.082       .  S
C1739      C1740   1.411       .  A
C1739      C1746   1.444       .  S
C1740      C1741   1.407       .  A
C1741      C1742   1.400       .  A
C1741      H1744   1.082       .  S
C1742      C1745   1.445       .  S
C1745      N1747   1.157       .  T
C1746      N1748   1.157       .  T
C1749      C1750   1.403       .  A
C1749      C1754   1.415       .  A
C1750      C1751   1.397       .  A
C1750      H1755   1.085       .  S
C1751      C1752   1.416       .  A
C1751      C1758   1.444       .  S
C1752      C1753   1.406       .  A
C1753      C1754   1.402       .  A
C1753      H1756   1.085       .  S
C1754      C1757   1.445       .  S
C1757      N1759   1.157       .  T
C1758      N1760   1.157       .  T
C1761      C1762   1.414       .  A
C1761      C1766   1.410       .  A
C1762      C1763   1.404       .  A
C1762      H1767   1.087       .  S
C1763      C1764   1.406       .  A
C1763      C1770   1.444       .  S
C1764      C1765   1.407       .  A
C1765      C1766   1.402       .  A
C1765      H1768   1.088       .  S
C1766      C1769   1.443       .  S
C1769      N1771   1.157       .  T
C1770      N1772   1.157       .  T
C1773      C1774   1.407       .  A
C1773      C1778   1.405       .  A
C1774      C1775   1.398       .  A
C1774      H1779   1.082       .  S
C1775      C1776   1.409       .  A
C1775      C1782   1.444       .  S
C1776      C1777   1.410       .  A
C1777      C1778   1.400       .  A
C1777      H1780   1.081       .  S
C1778      C1781   1.443       .  S
C1781      N1783   1.157       .  T
C1782      N1784   1.157       .  T
C1785      C1790   1.417       .  A
C1786      H1791   1.086       .  S
C1787      C1788   1.417       .  A
C1788      C1789   1.398       .  A
C1789      C1790   1.405       .  A
C1789      H1792   1.086       .  S
C1790      C1793   1.439       .  S
C1793      N1795   1.156       .  T
C1794      N1796   1.156       .  T
C1797      C1798   1.410   1_556  A
C1798      C1799   1.403       .  A
C1798      H1803   1.084       .  S
C1799      C1806   1.445       .  S
C1800      C1801   1.404       .  A
C1801      C1802   1.400       .  A
C1801      H1804   1.085       .  S
C1802      C1805   1.445       .  S
C1805      N1807   1.157       .  T
C1806      N1808   1.157       .  T
C1809      C1810   1.411       .  A
C1809      C1814   1.406       .  A
C1810      C1811   1.401       .  A
C1810      H1815   1.087       .  S
C1811      C1812   1.406       .  A
C1811      C1818   1.444       .  S
C1812      C1813   1.408       .  A
C1813      C1814   1.398       .  A
C1813      H1816   1.088       .  S
C1814      C1817   1.444       .  S
C1817      N1819   1.157       .  T
C1818      N1820   1.157       .  T
C1821      C1822   1.399       .  A
C1821      C1826   1.417       .  A
C1822      C1823   1.400       .  A
C1822      H1827   1.084       .  S
C1823      C1824   1.416       .  A
C1823      C1830   1.445       .  S
C1824      C1825   1.397       .  A
C1825      C1826   1.395       .  A
C1825      H1828   1.084       .  S
C1826      C1829   1.444       .  S
C1829      N1831   1.157       .  T
C1830      N1832   1.157       .  T
C1833      C1834   1.402       .  A
C1833      C1838   1.417       .  A
C1834      C1835   1.406       .  A
C1834      H1839   1.084       .  S
C1835      C1836   1.415       .  A
C1835      C1842   1.442       .  S
C1836      C1837   1.404       .  A
C1837      C1838   1.407       .  A
C1837      H1840   1.084       .  S
C1838      C1841   1.444       .  S
C1841      N1843   1.157       .  T
C1842      N1844   1.156       .  T
C1845      C1846   1.408       .  A
C1846      C1847   1.403       .  A
C1846      H1851   1.084       .  S
C1847      C1848   1.414       .  A
C1847      C1854   1.445       .  S
C1849      C1850   1.397       .  A
C1849      H1852   1.085       .  S
C1850      C1853   1.445       .  S
C1853      N1855   1.157   1_554  T
C1854      N1856   1.157       .  T
