geometry optimzed in LAMMPS
_audit_creation_date              2020-12-01 
_audit_creation_method            'lammps2cif' 
_symmetry_space_group_name_H-M    'P1' 
_symmetry_Int_Tables_number       1 
_symmetry_cell_setting            triclinic 
loop_ 
_symmetry_equiv_pos_as_xyz 
  x,y,z 
_cell_length_a                    43.28372332 
_cell_length_b                    43.285805557576154 
_cell_length_c                    127.40639654614131 
_cell_angle_alpha                 89.97050474655423 
_cell_angle_beta                  90.02195903459544 
_cell_angle_gamma                 120.00898426449884 
loop_ 
_atom_site_label 
_atom_site_type_symbol 
_atom_site_fract_x 
_atom_site_fract_y 
_atom_site_fract_z 
_atom_site_charge 
O1          O  0.40470848  0.10188614  0.64579995    -0.78900
O2          O  0.37022360  0.06009815  0.59874985    -0.63600
O3          O  0.37385905  0.05750638  0.62850520    -1.10200
C4          C  0.49088822  0.07679387  0.62140384     1.08000
O5          O  0.38972682  0.02196092  0.59700981    -0.76800
O6          O  0.42181850  0.00493286  0.61267531    -0.64400
Ni7        Ni  0.36565103  0.09009172  0.63653056     1.34900
C8          C  0.40763893  0.49344246  0.62171564     0.86700
O9          O  0.32377444  0.05209963  0.61348043    -0.77300
O10         O  0.32536994  0.08169762  0.62811392    -0.87600
C11         C  0.36957937  0.03411505  0.59406706     0.86300
O12         O  0.39649460  0.13184482  0.62877095    -0.65800
O13         O  0.48108132  0.07001244  0.61176554    -0.85100
C14         C  0.40089577  0.13676301  0.61897561     0.87100
C15         C  0.31079924  0.06603338  0.61955761     1.08700
H16         H  0.43539122  0.09517778  0.61293114     0.40500
O17         O  0.41970168  0.07006958  0.61426904    -1.07700
O18         O  0.40387258  0.01295686  0.62846492    -0.64400
Ni19       Ni  0.42125278  0.06431545  0.62906872     1.26300
O20         O  0.38980943  0.11143043  0.61238603    -0.64600
O21         O  0.46993022  0.07349089  0.62897720    -0.76900
C22         C  0.41282175  0.08033405  0.64989511     0.86500
O23         O  0.41960748  0.06015478  0.64421721    -0.64100
Ni24       Ni  0.43506201  0.04691955  0.60475381     1.27400
Ni25       Ni  0.37169791  0.06055799  0.61359673     1.26100
H26         H  0.35684902  0.03348992  0.63068832     0.41100
O27         O  0.44400576  0.14167351  0.73502308    -0.78900
O28         O  0.41144504  0.10409421  0.68769341    -0.63600
O29         O  0.41367431  0.09415243  0.71762034    -1.10200
C30         C  0.02376073  0.09974938  0.71231655     1.08000
O31         O  0.42501712  0.06153114  0.68596592    -0.76800
O32         O  0.43542472  0.03221577  0.70271040    -0.64400
Ni33       Ni  0.39864666  0.11702575  0.72736161     1.34900
C34         C  0.43222975  0.02750600  0.71252547     0.86700
O35         O  0.36271683  0.09112678  0.70323250    -0.77300
O36         O  0.35247840  0.09431491  0.72051594    -0.87600
C37         C  0.41700815  0.08323880  0.68193959     0.86300
O38         O  0.41205498  0.15932140  0.71958349    -0.65800
O39         O  0.01038835  0.08639975  0.70342363    -0.85100
C40         C  0.42405633  0.17028327  0.71044412     0.87100
C41         C  0.34227720  0.08780168  0.71092036     1.08700
H42         H  0.47509207  0.13048326  0.70070669     0.40500
O43         O  0.45822049  0.10655183  0.70299270    -1.07700
O44         O  0.44400448  0.05298964  0.71909190    -0.64400
Ni45       Ni  0.46180583  0.10388309  0.71786295     1.26300
O46         O  0.42879931  0.15136654  0.70358691    -0.64600
O47         O  0.00954405  0.11113569  0.71887254    -0.76900
C48         C  0.46490637  0.13015395  0.73768280     0.86500
O49         O  0.46505320  0.10493042  0.73273772    -0.64100
Ni50       Ni  0.46531326  0.07369936  0.69475184     1.27400
Ni51       Ni  0.41103714  0.09997283  0.70283485     1.26100
H52         H  0.39819596  0.06901275  0.71896720     0.41100
O53         O  0.40375520  0.29226803  0.64745476    -0.78900
O54         O  0.43097571  0.30100049  0.59841943    -0.63600
O55         O  0.43751377  0.30855533  0.62809963    -1.10200
C56         C  0.41341458  0.40405539  0.62117748     1.08000
O57         O  0.46826457  0.35873850  0.59650702    -0.76800
O58         O  0.48569637  0.40762889  0.61207360    -0.64400
Ni59       Ni  0.40668944  0.26629081  0.63588154     1.34900
C60         C  0.00155604  0.41319156  0.62164529     0.86700
O61         O  0.44397327  0.26519093  0.61291321    -0.77300
O62         O  0.40673733  0.23355243  0.62573136    -0.87600
C63         C  0.45680814  0.32646087  0.59371791     0.86300
O64         O  0.36519984  0.26344501  0.62986791    -0.65800
O65         O  0.42038981  0.40146206  0.61153524    -0.85100
C66         C  0.35775160  0.25898494  0.62017038     0.87100
C67         C  0.42618071  0.23630380  0.61796117     1.08700
H68         H  0.39609986  0.32977049  0.61265182     0.40500
O69         O  0.42131589  0.33992398  0.61395317    -1.07700
O70         O  0.47804509  0.38279740  0.62803239    -0.64400
Ni71       Ni  0.42733446  0.34729939  0.62868633     1.26300
O72         O  0.38156650  0.26838347  0.61305769    -0.64600
O73         O  0.41603956  0.38553770  0.62863216    -0.76900
C74         C  0.41723867  0.32455296  0.65013438     0.86500
O75         O  0.43131275  0.35070662  0.64372749    -0.64100
Ni76       Ni  0.44327841  0.37859608  0.60438401     1.27400
Ni77       Ni  0.43270262  0.30280159  0.61323192     1.26100
H78         H  0.46199044  0.31685968  0.63007936     0.41100
O79         O  0.36855769  0.30915485  0.73576052    -0.78900
O80         O  0.40057686  0.31160723  0.68816810    -0.63600
O81         O  0.41300146  0.32504058  0.71783135    -1.10200
C82         C  0.40870823  0.42874106  0.71347493     1.08000
O83         O  0.42441553  0.36925249  0.68378536    -0.76800
O84         O  0.46678138  0.39932486  0.70064532    -0.64400
Ni85       Ni  0.39115302  0.28726776  0.72770803     1.34900
C86         C  0.47613888  0.40479863  0.71020127     0.86700
O87         O  0.41736617  0.27873349  0.70335930    -0.77300
O88         O  0.41187834  0.26254723  0.72045970    -0.87600
C89         C  0.41248807  0.33689443  0.68146980     0.86300
O90         O  0.34743560  0.25848557  0.72050726    -0.65800
O91         O  0.42712355  0.43064224  0.70553260    -0.85100
C92         C  0.33643254  0.25788716  0.71125145     0.87100
C93         C  0.41916721  0.25994080  0.71085535     1.08700
H94         H  0.37023863  0.34626602  0.70202875     0.40500
O95         O  0.39505487  0.35500452  0.70367244    -1.07700
O96         O  0.45372874  0.39655909  0.71770560    -0.64400
Ni97       Ni  0.40235558  0.36259353  0.71843905     1.26300
O98         O  0.35512332  0.28052052  0.70415753    -0.64600
O99         O  0.39135238  0.40031903  0.71872806    -0.76900
C100        C  0.38138325  0.34182366  0.73833229     0.86500
O101        O  0.40668294  0.36639213  0.73320558    -0.64100
Ni102      Ni  0.42440618  0.39655496  0.69539246     1.27400
Ni103      Ni  0.40565273  0.31648687  0.70317196     1.26100
H104        H  0.43827081  0.33495531  0.71898430     0.41100
O105        O  0.19705233  0.08897035  0.64555978    -0.78900
O106        O  0.19248743  0.12340753  0.59876206    -0.63600
O107        O  0.18521893  0.12108512  0.62846904    -1.10200
C108        C  0.08511143  0.00544687  0.62138972     1.08000
O109        O  0.13538794  0.10656587  0.59703492    -0.76800
O110        O  0.08562827  0.07624628  0.61252539    -0.64400
Ni111      Ni  0.22511238  0.12970756  0.63698176     1.34900
C112        C  0.08733238  0.08840570  0.62167370     0.86700
O113        O  0.23201710  0.16973246  0.61345380    -0.77300
O114        O  0.25701689  0.17129103  0.62906967    -0.87600
C115        C  0.16786276  0.12564874  0.59414126     0.86300
O116        O  0.23918103  0.10114176  0.62936474    -0.65800
O117        O  0.08846938  0.01539750  0.61176132    -0.85100
C118        C  0.23787891  0.09362279  0.61973490     0.87100
C119        C  0.25729551  0.18438634  0.62010071     1.08700
H120        H  0.15974564  0.05869878  0.61304382     0.40500
O121        O  0.15129934  0.07521577  0.61431848    -1.07700
O122        O  0.11122566  0.09295821  0.62839707    -0.64400
Ni123      Ni  0.14384753  0.07414109  0.62908733     1.26300
O124        O  0.22211036  0.10215963  0.61289403    -0.64600
O125        O  0.10331663  0.02598827  0.62898461    -0.76900
C126        C  0.16813894  0.08247221  0.64982511     0.86500
O127        O  0.14117146  0.07613383  0.64422169    -0.64100
Ni128      Ni  0.11318028  0.06125970  0.60473370     1.27400
Ni129      Ni  0.19116084  0.12249564  0.61361821     1.26100
H130        H  0.17840024  0.13847360  0.63036613     0.41100
O131        O  0.19732850  0.06050737  0.73511596    -0.78900
O132        O  0.19483142  0.09159260  0.68776607    -0.63600
O133        O  0.18128524  0.09085547  0.71757278    -1.10200
C134        C  0.07867312  0.48160956  0.71200545     1.08000
O135        O  0.13864103  0.07723968  0.68577501    -0.76800
O136        O  0.09660100  0.06587101  0.70193805    -0.64400
Ni137      Ni  0.21869703  0.10585632  0.72749157     1.34900
C138        C  0.09615122  0.07155102  0.71165085     0.86700
O139        O  0.23033978  0.14145770  0.70328886    -0.77300
O140        O  0.24286601  0.15195081  0.72062957    -0.87600
C141        C  0.16830519  0.08459780  0.68186340     0.86300
O142        O  0.24782343  0.09228572  0.71995671    -0.65800
O143        O  0.07822356  0.49724892  0.70359792    -0.85100
C144        C  0.24695079  0.08005216  0.71087028     0.87100
C145        C  0.24744110  0.16200314  0.71100863     1.08700
H146        H  0.15723491  0.02858981  0.70113422     0.40500
O147        O  0.14976455  0.04543499  0.70309464    -1.07700
O148        O  0.11017072  0.06120814  0.71854167    -0.64400
Ni149      Ni  0.14262747  0.04274280  0.71790680     1.26300
O150        O  0.22348372  0.07496230  0.70394825    -0.64600
O151        O  0.10522357  0.49358291  0.71822042    -0.76900
C152        C  0.16477551  0.04011004  0.73771488     0.86500
O153        O  0.13981010  0.04068910  0.73275436    -0.64100
Ni154      Ni  0.11021929  0.03675697  0.69440819     1.27400
Ni155      Ni  0.19037132  0.09290171  0.70286294     1.26100
H156        H  0.17180195  0.10656655  0.71874591     0.41100
O157        O  0.09165072  0.19692921  0.85189323    -0.78900
O158        O  0.12465877  0.19535032  0.89945816    -0.63600
O159        O  0.12133483  0.18550875  0.86978886    -1.10200
C160        C  0.00475440  0.08756821  0.87754954     1.08000
O161        O  0.10611792  0.13808334  0.90166795    -0.76800
O162        O  0.07446509  0.08729020  0.88657590    -0.64400
Ni163      Ni  0.13035156  0.22526564  0.86112677     1.34900
C164        C  0.08646902  0.08798880  0.87746872     0.86700
O165        O  0.17122088  0.23207209  0.88456593    -0.77300
O166        O  0.17036544  0.25825266  0.86946126    -0.87600
C167        C  0.12606364  0.17064830  0.90431540     0.86300
O168        O  0.09922811  0.23707303  0.86824930    -0.65800
O169        O  0.01474201  0.09198236  0.88717663    -0.85100
C170        C  0.09412745  0.23868071  0.87794542     0.87100
C171        C  0.18462851  0.25813885  0.87818017     1.08700
H172        H  0.05953558  0.16319438  0.88530638     0.40500
O173        O  0.07539111  0.15386246  0.88416005    -1.07700
O174        O  0.09167525  0.11157199  0.87057093    -0.64400
Ni175      Ni  0.07385976  0.14484767  0.86946994     1.26300
O176        O  0.10488898  0.22538933  0.88497928    -0.64600
O177        O  0.02529073  0.10488137  0.86984325    -0.76900
C178        C  0.08317521  0.16653424  0.84831673     0.86500
O179        O  0.07552900  0.14028736  0.85441368    -0.64100
Ni180      Ni  0.06074048  0.11640549  0.89406515     1.27400
Ni181      Ni  0.12329643  0.19263334  0.88461179     1.26100
H182        H  0.13830178  0.17809379  0.86792126     0.41100
O183        O  0.06067731  0.20020371  0.76377091    -0.78900
O184        O  0.09241541  0.19246140  0.81076461    -0.63600
O185        O  0.09151451  0.18236681  0.78083470    -1.10200
C186        C  0.47916165  0.07847406  0.78718222     1.08000
O187        O  0.07768909  0.13601017  0.81209206    -0.76800
O188        O  0.06525571  0.09517563  0.79556769    -0.64400
Ni189      Ni  0.10618516  0.22085403  0.77132222     1.34900
C190        C  0.07085156  0.09563636  0.78582278     0.86700
O191        O  0.14229826  0.22919587  0.79537447    -0.77300
O192        O  0.15234705  0.24415045  0.77815259    -0.87600
C193        C  0.08505429  0.16517991  0.81634995     0.86300
O194        O  0.09259838  0.24912254  0.77932675    -0.65800
O195        O  0.49192998  0.07831684  0.79616901    -0.85100
C196        C  0.08065801  0.24740818  0.78850710     0.87100
C197        C  0.16269564  0.24707767  0.78772074     1.08700
H198        H  0.02931737  0.15692067  0.79733524     0.40500
O199        O  0.04602247  0.14946914  0.79519429    -1.07700
O200        O  0.06144423  0.11122085  0.77918905    -0.64400
Ni201      Ni  0.04347491  0.14398838  0.78032566     1.26300
O202        O  0.07609375  0.22341288  0.79518643    -0.64600
O203        O  0.49389194  0.10414823  0.78067255    -0.76900
C204        C  0.04052537  0.16790156  0.76089741     0.86500
O205        O  0.04161472  0.14266492  0.76549843    -0.64100
Ni206      Ni  0.03692584  0.10887816  0.80344509     1.27400
Ni207      Ni  0.09361121  0.18973759  0.79563239     1.26100
H208        H  0.10715289  0.17296613  0.77939626     0.41100
O209        O  0.29597492  0.40386242  0.85117047    -0.78900
O210        O  0.30211724  0.43133398  0.90014405    -0.63600
O211        O  0.31065572  0.43930251  0.87043443    -1.10200
C212        C  0.40609335  0.41536139  0.87721194     1.08000
O213        O  0.35998876  0.46771112  0.90233705    -0.76800
O214        O  0.40974652  0.48622042  0.88694235    -0.64400
Ni215      Ni  0.26924217  0.40859166  0.86230169     1.34900
C216        C  0.40921503  0.49848422  0.87796034     0.86700
O217        O  0.26621284  0.44432406  0.88562643    -0.77300
O218        O  0.23611017  0.41030034  0.87199629    -0.87600
C219        C  0.32769774  0.45631008  0.90509200     0.86300
O220        O  0.26398758  0.36636753  0.86854167    -0.65800
O221        O  0.40246151  0.42056421  0.88692852    -0.85100
C222        C  0.25961721  0.35883374  0.87822495     0.87100
C223        C  0.23804075  0.42802648  0.88013774     1.08700
H224        H  0.33135201  0.39707655  0.88551341     0.40500
O225        O  0.34161267  0.42245117  0.88448624    -1.07700
O226        O  0.38521214  0.48101488  0.87104104    -0.64400
Ni227      Ni  0.35000686  0.43021697  0.86980868     1.26300
O228        O  0.26984744  0.38255286  0.88537483    -0.64600
O229        O  0.38857692  0.41950372  0.86975454    -0.76900
C230        C  0.32835063  0.42031472  0.84839169     0.86500
O231        O  0.35426958  0.43618231  0.85480949    -0.64100
Ni232      Ni  0.37975495  0.44314633  0.89425477     1.27400
Ni233      Ni  0.30426109  0.43360921  0.88529793     1.26100
H234        H  0.31866578  0.46382718  0.86858227     0.41100
O235        O  0.30972132  0.36697477  0.76348773    -0.78900
O236        O  0.31014272  0.39836951  0.81080624    -0.63600
O237        O  0.32406014  0.41201075  0.78114191    -1.10200
C238        C  0.42888399  0.40721145  0.78804043     1.08000
O239        O  0.36586729  0.44133309  0.81274719    -0.76800
O240        O  0.41030413  0.47205327  0.79710707    -0.64400
Ni241      Ni  0.28693427  0.38943580  0.77116586     1.34900
C242        C  0.41001009  0.47892657  0.78748194     0.86700
O243        O  0.27446576  0.41212698  0.79543013    -0.77300
O244        O  0.26152728  0.41003273  0.77813244    -0.87600
C245        C  0.33624350  0.41898532  0.81666447     0.86300
O246        O  0.25821389  0.34606132  0.77850620    -0.65800
O247        O  0.42743946  0.41920285  0.79703644    -0.85100
C248        C  0.25872933  0.33461948  0.78762001     0.87100
C249        C  0.25697974  0.41527039  0.78778807     1.08700
H250        H  0.34871995  0.37399346  0.79735807     0.40500
O251        O  0.35593834  0.39838789  0.79556891    -1.07700
O252        O  0.39493430  0.45517628  0.78047840    -0.64400
Ni253      Ni  0.36372536  0.40405975  0.78081843     1.26300
O254        O  0.28199635  0.35305573  0.79459805    -0.64600
O255        O  0.40452682  0.39740923  0.78109248    -0.76900
C256        C  0.34250386  0.38000390  0.76098701     0.86500
O257        O  0.36696312  0.40581605  0.76600147    -0.64100
Ni258      Ni  0.39475547  0.42878570  0.80454294     1.27400
Ni259      Ni  0.31476633  0.40429723  0.79578779     1.26100
H260        H  0.33295719  0.43716055  0.78005743     0.41100
O261        O  0.10246289  0.40985248  0.85318216    -0.78900
O262        O  0.06132653  0.37114027  0.89975541    -0.63600
O263        O  0.05804321  0.37606328  0.87006597    -1.10200
C264        C  0.07431205  0.49147291  0.87773411     1.08000
O265        O  0.02255413  0.38984162  0.90175647    -0.76800
O266        O  0.00376796  0.42125609  0.88647156    -0.64400
Ni267      Ni  0.09074160  0.36919430  0.86169431     1.34900
C268        C  0.99276499  0.40886993  0.87736947     0.86700
O269        O  0.05466705  0.32595768  0.88468316    -0.77300
O270        O  0.08224107  0.32776574  0.86954790    -0.87600
C271        C  0.03515367  0.36996190  0.90451288     0.86300
O272        O  0.13277960  0.39872678  0.86949340    -0.65800
O273        O  0.06821279  0.48140425  0.88735005    -0.85100
C274        C  0.13805747  0.40330407  0.87926555     0.87100
C275        C  0.06767267  0.31305022  0.87822070     1.08700
H276        H  0.09492361  0.43711868  0.88575330     0.40500
O277        O  0.06985721  0.42100033  0.88448814    -1.07700
O278        O  0.01175181  0.40398838  0.87057628    -0.64400
Ni279      Ni  0.06333858  0.42285553  0.86974810     1.26300
O280        O  0.11293662  0.39268163  0.88593268    -0.64600
O281        O  0.07104174  0.47093391  0.87005550    -0.76900
C282        C  0.07995854  0.41638873  0.84899399     0.86500
O283        O  0.05868749  0.42166338  0.85463147    -0.64100
Ni284      Ni  0.04632268  0.43528874  0.89419915     1.27400
Ni285      Ni  0.06172660  0.37340016  0.88490155     1.26100
H286        H  0.03408646  0.35867159  0.86794587     0.41100
O287        O  0.13895026  0.44080229  0.76406791    -0.78900
O288        O  0.10411916  0.41315093  0.81138195    -0.63600
O289        O  0.09213224  0.41293827  0.78154945    -1.10200
C290        C  0.09726871  0.02234967  0.78540065     1.08000
O291        O  0.06120783  0.42630736  0.81289250    -0.76800
O292        O  0.03141844  0.43575202  0.79619764    -0.64400
Ni293      Ni  0.11312061  0.39589619  0.77183580     1.34900
C294        C  0.02648529  0.43220714  0.78639961     0.86700
O295        O  0.09020943  0.36286491  0.79618273    -0.77300
O296        O  0.08930828  0.35017552  0.77891441    -0.87600
C297        C  0.08327124  0.41904103  0.81703487     0.86300
O298        O  0.15528894  0.40780913  0.77947354    -0.65800
O299        O  0.07808710  0.00552795  0.79320889    -0.85100
C300        C  0.16763235  0.42144837  0.78837090     0.87100
C301        C  0.08515551  0.34129004  0.78863319     1.08700
H302        H  0.12963536  0.47568160  0.79804495     0.40500
O303        O  0.10564272  0.45868324  0.79584435    -1.07700
O304        O  0.05178018  0.44395198  0.77978149    -0.64400
Ni305      Ni  0.10252821  0.46139549  0.78098352     1.26300
O306        O  0.15025773  0.42877873  0.79513094    -0.64600
O307        O  0.11554712  0.01184810  0.78040404    -0.76900
C308        C  0.12853592  0.46250302  0.76131850     0.86500
O309        O  0.10351511  0.46358481  0.76610620    -0.64100
Ni310      Ni  0.07300016  0.46618823  0.80401710     1.27400
Ni311      Ni  0.09899799  0.41137651  0.79627704     1.26100
H312        H  0.06682403  0.39769123  0.78043910     0.41100
O313        O  0.27110558  0.23697647  0.51951531    -0.78900
O314        O  0.23349649  0.20329475  0.56671301    -0.63600
O315        O  0.22818697  0.20665060  0.53700977    -1.10200
C316        C  0.24924520  0.32425774  0.54443863     1.08000
O317        O  0.19611760  0.22363553  0.56880330    -0.76800
O318        O  0.17840296  0.25602030  0.55350963    -0.64400
Ni319      Ni  0.25873280  0.19708245  0.52846085     1.34900
C320        C  0.16677717  0.24351900  0.54445839     0.86700
O321        O  0.22403240  0.15646247  0.55187928    -0.77300
O322        O  0.24968057  0.15601655  0.53660851    -0.87600
C323        C  0.20784356  0.20297941  0.57153191     0.86300
O324        O  0.30158557  0.22659526  0.53586309    -0.65800
O325        O  0.24375256  0.31466567  0.55410019    -0.85100
C326        C  0.30795731  0.23260950  0.54555107     0.87100
C327        C  0.23572003  0.14227368  0.54542085     1.08700
H328        H  0.26795625  0.26833801  0.55243623     0.40500
O329        O  0.24270038  0.25281304  0.55129029    -1.07700
O330        O  0.18474585  0.23744914  0.53761965    -0.64400
Ni331      Ni  0.23574696  0.25439979  0.53657641     1.26300
O332        O  0.28373222  0.22268512  0.55248153    -0.64600
O333        O  0.24522765  0.30323077  0.53680554    -0.76900
C334        C  0.24970267  0.24560918  0.51562041     0.86500
O335        O  0.23023695  0.25281012  0.52148010    -0.64100
Ni336      Ni  0.22090027  0.26878509  0.56109304     1.27400
Ni337      Ni  0.23277724  0.20460318  0.55185580     1.26100
H338        H  0.20379106  0.18997042  0.53508285     0.41100
O339        O  0.30773754  0.27238033  0.43071037    -0.78900
O340        O  0.27076695  0.24222852  0.47782329    -0.63600
O341        O  0.25976933  0.24228465  0.44794686    -1.10200
C342        C  0.26193271  0.34979588  0.45346037     1.08000
O343        O  0.22851641  0.25628853  0.47970263    -0.76800
O344        O  0.19775329  0.26266160  0.46265296    -0.64400
Ni345      Ni  0.28282464  0.22705687  0.43834898     1.34900
C346        C  0.19280490  0.25950644  0.45284855     0.86700
O347        O  0.25761235  0.19232528  0.46253660    -0.77300
O348        O  0.25981059  0.18105172  0.44527289    -0.87600
C349        C  0.25053625  0.24852752  0.48362681     0.86300
O350        O  0.32489478  0.24027806  0.44622327    -0.65800
O351        O  0.24579577  0.33439612  0.46188253    -0.85100
C352        C  0.33599390  0.25329811  0.45525971     0.87100
C353        C  0.25379392  0.17135899  0.45492114     1.08700
H354        H  0.29601120  0.30497569  0.46450975     0.40500
O355        O  0.27212201  0.28774347  0.46228958    -1.07700
O356        O  0.21812198  0.27198647  0.44622185    -0.64400
Ni357      Ni  0.26906494  0.29021621  0.44739430     1.26300
O358        O  0.31731581  0.25902460  0.46192960    -0.64600
O359        O  0.27713261  0.33797018  0.44745012    -0.76900
C360        C  0.29575379  0.29270481  0.42785348     0.86500
O361        O  0.26976712  0.29210986  0.43253953    -0.64100
Ni362      Ni  0.23894465  0.29478541  0.47035856     1.27400
Ni363      Ni  0.26597249  0.24067270  0.46271546     1.26100
H364        H  0.23463831  0.22652816  0.44665850     0.41100
O365        O  0.26230915  0.02879243  0.51811634    -0.78900
O366        O  0.29310562  0.02330270  0.56626502    -0.63600
O367        O  0.28956719  0.01594047  0.53646957    -1.10200
C368        C  0.17421307  0.42001492  0.54440746     1.08000
O369        O  0.27499452  0.46918672  0.56869479    -0.76800
O370        O  0.24347024  0.41862995  0.55351778    -0.64400
Ni371      Ni  0.29777894  0.05645718  0.52834924     1.34900
C372        C  0.25602018  0.41962362  0.54446282     0.86700
O373        O  0.33945938  0.06027049  0.55137747    -0.77300
O374        O  0.33526078  0.08948650  0.53745355    -0.87600
C375        C  0.29371517  0.99787378  0.57096599     0.86300
O376        O  0.26300012  0.06311579  0.53541800    -0.65800
O377        O  0.18394437  0.42412443  0.55405536    -0.85100
C378        C  0.26036858  0.06663935  0.54516752     0.87100
C379        C  0.35100738  0.08791648  0.54569440     1.08700
H380        H  0.22951932  0.49494515  0.55230357     0.40500
O381        O  0.24539210  0.48562377  0.55117853    -1.07700
O382        O  0.26161411  0.44349015  0.53760530    -0.64400
Ni383      Ni  0.24374061  0.47679198  0.53648769     1.26300
O384        O  0.27383168  0.05540283  0.55204855    -0.64600
O385        O  0.19517722  0.43699239  0.53676452    -0.76900
C386        C  0.25208087  0.49898526  0.51557833     0.86500
O387        O  0.24546258  0.47249975  0.52143193    -0.64100
Ni388      Ni  0.22990099  0.44795049  0.56101298     1.27400
Ni389      Ni  0.29144506  0.02174073  0.55136250     1.26100
H390        H  0.30664035  0.00891471  0.53437793     0.41100
O391        O  0.22528776  0.02700420  0.43014488    -0.78900
O392        O  0.25706251  0.02167259  0.47727579    -0.63600
O393        O  0.25623909  0.01029248  0.44740837    -1.10200
C394        C  0.14330049  0.40385682  0.45471787     1.08000
O395        O  0.23991645  0.46474734  0.47999280    -0.76800
O396        O  0.22857785  0.42332143  0.46370084    -0.64400
Ni397      Ni  0.27077644  0.04830838  0.43772953     1.34900
C398        C  0.23349940  0.42224720  0.45396481     0.86700
O399        O  0.30655883  0.05830945  0.46187201    -0.77300
O400        O  0.31691091  0.07235104  0.44460586    -0.87600
C401        C  0.25073926  0.99470082  0.48286299     0.86300
O402        O  0.25699303  0.07678785  0.44553035    -0.65800
O403        O  0.15792542  0.40422336  0.46341219    -0.85100
C404        C  0.24520349  0.07558409  0.45470259     0.87100
C405        C  0.32698925  0.07605073  0.45422250     1.08700
H406        H  0.19196050  0.48444693  0.46460496     0.40500
O407        O  0.20837340  0.47651622  0.46255996    -1.07700
O408        O  0.22274842  0.43597164  0.44708674    -0.64400
Ni409      Ni  0.20478899  0.46891004  0.44774376     1.26300
O410        O  0.24028563  0.05168723  0.46146936    -0.64600
O411        O  0.15663205  0.42951246  0.44816562    -0.76900
C412        C  0.20165411  0.49066656  0.42790875     0.86500
O413        O  0.20202384  0.46567984  0.43291918    -0.64100
Ni414      Ni  0.19949678  0.43683723  0.47125912     1.27400
Ni415      Ni  0.25825686  0.01839697  0.46216733     1.26100
H416        H  0.27201170  0.00097283  0.44608241     0.41100
O417        O  0.46706345  0.22384293  0.52011875    -0.78900
O418        O  0.47179669  0.26165029  0.56698193    -0.63600
O419        O  0.48006156  0.26748410  0.53734301    -1.10200
C420        C  0.07852369  0.25073820  0.54471774     1.08000
O421        O  0.03059963  0.30320065  0.56909150    -0.76800
O422        O  0.07994915  0.32106854  0.55361016    -0.64400
Ni423      Ni  0.43994740  0.23742126  0.52874094     1.34900
C424        C  0.07837505  0.33221368  0.54454336     0.86700
O425        O  0.43404526  0.27099988  0.55228788    -0.77300
O426        O  0.40857489  0.24755670  0.53673209    -0.87600
C427        C  0.49690252  0.28780213  0.57168820     0.86300
O428        O  0.42491004  0.19440202  0.53617947    -0.65800
O429        O  0.07464275  0.25631419  0.55438636    -0.85100
C430        C  0.42525158  0.18787266  0.54582111     0.87100
C431        C  0.40855063  0.26032718  0.54572082     1.08700
H432        H  0.00384683  0.23089870  0.55300049     0.40500
O433        O  0.01305083  0.25601670  0.55175497    -1.07700
O434        O  0.05401302  0.31367188  0.53782096    -0.64400
Ni435      Ni  0.02088734  0.26227165  0.53698988     1.26300
O436        O  0.44099146  0.21181990  0.55273940    -0.64600
O437        O  0.06106552  0.25426031  0.53713787    -0.76900
C438        C  0.99721520  0.24557928  0.51622057     0.86500
O439        O  0.02386392  0.26673828  0.52185698    -0.64100
Ni440      Ni  0.05124527  0.27876391  0.56138998     1.27400
Ni441      Ni  0.47365934  0.26268849  0.55216181     1.26100
H442        H  0.48781129  0.29194972  0.53548011     0.41100
O443        O  0.47281284  0.19582145  0.43062659    -0.78900
O444        O  0.47544348  0.22620161  0.47803818    -0.63600
O445        O  0.48977031  0.24125166  0.44842845    -1.10200
C446        C  0.09317003  0.23414531  0.45225340     1.08000
O447        O  0.03526457  0.25507072  0.48172472    -0.76800
O448        O  0.06523691  0.29418972  0.46432680    -0.64400
Ni449      Ni  0.45234242  0.22023106  0.43846357     1.34900
C450        C  0.06975847  0.30220710  0.45466842     0.86700
O451        O  0.44142682  0.24283777  0.46286156    -0.77300
O452        O  0.42915187  0.24268839  0.44557146    -0.87600
C453        C  0.50131733  0.24422044  0.48429730     0.86300
O454        O  0.42211174  0.17712900  0.44572291    -0.65800
O455        O  0.09533024  0.25257160  0.46024271    -0.85100
C456        C  0.42256777  0.16473239  0.45468735     0.87100
C457        C  0.42476507  0.24750415  0.45526502     1.08700
H458        H  0.01237941  0.19692811  0.46408972     0.40500
O459        O  0.02033233  0.22144725  0.46223988    -1.07700
O460        O  0.06054869  0.27875404  0.44743786    -0.64400
Ni461      Ni  0.02667066  0.22729716  0.44736863     1.26300
O462        O  0.44627467  0.18215257  0.46166229    -0.64600
O463        O  0.06469441  0.21684251  0.44700986    -0.76900
C464        C  0.00371620  0.20409950  0.42765019     0.86500
O465        O  0.02890923  0.22971655  0.43252395    -0.64100
Ni466      Ni  0.06198093  0.25236099  0.47025675     1.27400
Ni467      Ni  0.48045403  0.23301034  0.46306704     1.26100
H468        H  0.49984332  0.26661598  0.44743580     0.41100
O469        O  0.05845192  0.13349645  0.31319041    -0.78900
O470        O  0.09319047  0.13503681  0.26604047    -0.63600
O471        O  0.10041979  0.14470668  0.29568844    -1.10200
C472        C  0.08244012  0.24319883  0.28819728     1.08000
O473        O  0.13263400  0.19217314  0.26389527    -0.76800
O474        O  0.15242742  0.24293036  0.27909832    -0.64400
Ni475      Ni  0.07046095  0.10523314  0.30452315     1.34900
C476        C  0.16351752  0.24191312  0.28821735     0.86700
O477        O  0.10217541  0.09736152  0.28086813    -0.77300
O478        O  0.07950410  0.07296912  0.29658392    -0.87600
C479        C  0.11960778  0.15953446  0.26122353     0.86300
O480        O  0.02710404  0.09090023  0.29729693    -0.65800
O481        O  0.08829359  0.23912280  0.27855805    -0.85100
C482        C  0.01993073  0.09135873  0.28770689     0.87100
C483        C  0.09207851  0.07242544  0.28760796     1.08700
H484        H  0.06129885  0.16795664  0.28028608     0.40500
O485        O  0.08643216  0.17687375  0.28142835    -1.07700
O486        O  0.14489749  0.21839846  0.29508383    -0.64400
Ni487      Ni  0.09385440  0.18550332  0.29613014     1.26300
O488        O  0.04353307  0.10600521  0.28061389    -0.64600
O489        O  0.08548362  0.22561120  0.29585972    -0.76900
C490        C  0.08091345  0.16307141  0.31709128     0.86500
O491        O  0.10010146  0.18969421  0.31119672    -0.64100
Ni492      Ni  0.10947818  0.21436837  0.27157448     1.27400
Ni493      Ni  0.09477469  0.13757728  0.28088952     1.26100
H494        H  0.12489045  0.15213700  0.29743716     0.41100
O495        O  0.02831949  0.13265633  0.40202753    -0.78900
O496        O  0.06421897  0.13788740  0.35486603    -0.63600
O497        O  0.07561977  0.14960862  0.38469402    -1.10200
C498        C  0.06940864  0.25344245  0.37870798     1.08000
O499        O  0.10559690  0.19444139  0.35299575    -0.76800
O500        O  0.13575916  0.23500075  0.36944521    -0.64400
Ni501      Ni  0.05255013  0.11157799  0.39439530     1.34900
C502        C  0.14167445  0.23513411  0.37915993     0.86700
O503        O  0.07791089  0.10170108  0.37022251    -0.77300
O504        O  0.07476408  0.08780104  0.38748930    -0.87600
C505        C  0.08390017  0.16459360  0.34905238     0.86300
O506        O  0.01016734  0.08278180  0.38664506    -0.65800
O507        O  0.08401455  0.25396450  0.36999398    -0.85100
C508        C  0.99933166  0.08404836  0.37750697     0.87100
C509        C  0.08081172  0.08399704  0.37785697     1.08700
H510        H  0.03785421  0.17446231  0.36833159     0.40500
O511        O  0.06212230  0.18190019  0.37034007    -1.07700
O512        O  0.11711301  0.22079823  0.38598588    -0.64400
Ni513      Ni  0.06616439  0.18816146  0.38518672     1.26300
O514        O  0.01807869  0.10802680  0.37074727    -0.64600
O515        O  0.05750819  0.22753438  0.38515551    -0.76900
C516        C  0.04076775  0.16510200  0.40479363     0.86500
O517        O  0.06671745  0.19014229  0.40000747    -0.64100
Ni518      Ni  0.09324297  0.22206221  0.36188920     1.27400
Ni519      Ni  0.06919591  0.14147298  0.36995376     1.26100
H520        H  0.10076643  0.15901203  0.38596835     0.41100
O521        O  0.06390780  0.43344373  0.31365113    -0.78900
O522        O  0.03702739  0.39975419  0.26553936    -0.63600
O523        O  0.03787679  0.39352136  0.29524412    -1.10200
C524        C  0.15581249  0.41418289  0.28867059     1.08000
O525        O  0.05727384  0.36228189  0.26358641    -0.76800
O526        O  0.08832558  0.34378406  0.27913669    -0.64400
Ni527      Ni  0.02876161  0.42540760  0.30331994     1.34900
C528        C  0.07520808  0.33190994  0.28811774     0.86700
O529        O  0.48530620  0.38410551  0.27949606    -0.77300
O530        O  0.48964956  0.41984278  0.29257918    -0.87600
C531        C  0.03701187  0.37431706  0.26070991     0.86300
O532        O  0.06350924  0.46746479  0.29644429    -0.65800
O533        O  0.14710694  0.40904494  0.27893778    -0.85100
C534        C  0.06755645  0.47386394  0.28670976     0.87100
C535        C  0.47349670  0.40100243  0.28466600     1.08700
H536        H  0.10080963  0.43372825  0.28017194     0.40500
O537        O  0.08523456  0.40845037  0.28124441    -1.07700
O538        O  0.06850684  0.34973998  0.29485566    -0.64400
Ni539      Ni  0.08546547  0.40085372  0.29594733     1.26300
O540        O  0.05467323  0.44942490  0.27978651    -0.64600
O541        O  0.13417174  0.41015621  0.29610800    -0.76900
C542        C  0.07479604  0.41311174  0.31701343     0.86500
O543        O  0.08280104  0.39480527  0.31092892    -0.64100
Ni544      Ni  0.10180047  0.38662630  0.27161902     1.27400
Ni545      Ni  0.03708922  0.39834119  0.28036960     1.26100
H546        H  0.02081235  0.36926613  0.29720451     0.41100
O547        O  0.10506861  0.46391482  0.40227289    -0.78900
O548        O  0.07594991  0.43005161  0.35503588    -0.63600
O549        O  0.07662366  0.41773569  0.38468942    -1.10200
C550        C  0.18467759  0.42191657  0.37997180     1.08000
O551        O  0.10162228  0.39753679  0.35130994    -0.76800
O552        O  0.09610436  0.36054929  0.36875381    -0.64400
Ni553      Ni  0.06013730  0.43922234  0.39447034     1.34900
C554        C  0.09360967  0.35340622  0.37845435     0.86700
O555        O  0.02604960  0.41390714  0.37019457    -0.77300
O556        O  0.01436316  0.41633607  0.38739996    -0.87600
C557        C  0.08569075  0.41402169  0.34859994     0.86300
O558        O  0.07279849  0.48200261  0.38700551    -0.65800
O559        O  0.16824076  0.40368632  0.37196501    -0.85100
C560        C  0.08469375  0.49361993  0.37790013     0.87100
C561        C  0.00491322  0.41020499  0.37773671     1.08700
H562        H  0.14006321  0.45813665  0.36843251     0.40500
O563        O  0.12355723  0.43373868  0.37040970    -1.07700
O564        O  0.10795695  0.37743031  0.38549214    -0.64400
Ni565      Ni  0.12497877  0.42857597  0.38526706     1.26300
O566        O  0.09072036  0.47566272  0.37102275    -0.64600
O567        O  0.17356286  0.43900850  0.38537617    -0.76900
C568        C  0.12565214  0.45210096  0.40499431     0.86500
O569        O  0.12561113  0.42675470  0.40009009    -0.64100
Ni570      Ni  0.13330759  0.40220927  0.36234463     1.27400
Ni571      Ni  0.07519184  0.42477387  0.37001796     1.26100
H572        H  0.06141562  0.39245005  0.38584846     0.41100
O573        O  0.36194027  0.42300229  0.31299575    -0.78900
O574        O  0.35385042  0.45854405  0.26578570    -0.63600
O575        O  0.34819504  0.45376895  0.29560196    -1.10200
C576        C  0.25055949  0.33729870  0.28839621     1.08000
O577        O  0.29599494  0.43803406  0.26403288    -0.76800
O578        O  0.24778007  0.40641193  0.27983023    -0.64400
Ni579      Ni  0.38903767  0.46135121  0.30347281     1.34900
C580        C  0.24981692  0.41903802  0.28893200     0.86700
O581        O  0.39298062  0.00741631  0.28050481    -0.77300
O582        O  0.42183377  0.00522719  0.29485153    -0.87600
C583        C  0.32815967  0.45851362  0.26107278     0.86300
O584        O  0.39816941  0.42944211  0.29562802    -0.65800
O585        O  0.25348961  0.34711256  0.27878144    -0.85100
C586        C  0.39935572  0.42618183  0.28579726     0.87100
C587        C  0.42031193  0.02002456  0.28639197     1.08700
H588        H  0.32435164  0.39277400  0.27985585     0.40500
O589        O  0.31482888  0.40832376  0.28125952    -1.07700
O590        O  0.27419854  0.42431313  0.29557207    -0.64400
Ni591      Ni  0.30772194  0.40652412  0.29609258     1.26300
O592        O  0.38611139  0.43863893  0.27929138    -0.64600
O593        O  0.26816355  0.35808489  0.29598536    -0.76900
C594        C  0.33192151  0.41416902  0.31696839     0.86500
O595        O  0.30518124  0.40777008  0.31123490    -0.64100
Ni596      Ni  0.27609587  0.39294752  0.27180131     1.27400
Ni597      Ni  0.35303364  0.45640116  0.28066887     1.26100
H598        H  0.34134411  0.47077018  0.29791796     0.41100
O599        O  0.36489957  0.38965087  0.40210391    -0.78900
O600        O  0.35678462  0.41588282  0.35474872    -0.63600
O601        O  0.34609201  0.41764886  0.38459144    -1.10200
C602        C  0.24220256  0.30749855  0.37949468     1.08000
O603        O  0.30000670  0.40034215  0.35297173    -0.76800
O604        O  0.26040450  0.39144926  0.36969794    -0.64400
Ni605      Ni  0.38448419  0.43440152  0.39420735     1.34900
C606        C  0.25972151  0.39672477  0.37943255     0.86700
O607        O  0.39312683  0.46711392  0.36976456    -0.77300
O608        O  0.40672239  0.47988309  0.38697408    -0.87600
C609        C  0.32993989  0.40894288  0.34898457     0.86300
O610        O  0.41408600  0.42147420  0.38662223    -0.65800
O611        O  0.24140026  0.32107958  0.37071589    -0.85100
C612        C  0.41260663  0.40791297  0.37770254     0.87100
C613        C  0.41022656  0.48878902  0.37725472     1.08700
H614        H  0.32096217  0.35385204  0.36861449     0.40500
O615        O  0.31356558  0.37076515  0.37056833    -1.07700
O616        O  0.27461266  0.38703784  0.38624912    -0.64400
Ni617      Ni  0.30794903  0.36946507  0.38544690     1.26300
O618        O  0.38811383  0.40130352  0.37092935    -0.64600
O619        O  0.26871613  0.32136746  0.38573494    -0.76900
C620        C  0.33271594  0.36882691  0.40497742     0.86500
O621        O  0.30699463  0.36886653  0.40030740    -0.64100
Ni622      Ni  0.27296178  0.36130354  0.36226478     1.27400
Ni623      Ni  0.35386554  0.41830834  0.36985547     1.26100
H624        H  0.33628223  0.43311558  0.38569380     0.41100
O625        O  0.42099049  0.36034579  0.18571816    -0.78900
O626        O  0.45701466  0.36105408  0.23271654    -0.63600
O627        O  0.45275634  0.35029825  0.20313498    -1.10200
C628        C  0.33615291  0.25270090  0.21121676     1.08000
O629        O  0.43799151  0.30370373  0.23510074    -0.76800
O630        O  0.40549358  0.25238810  0.22018822    -0.64400
Ni631      Ni  0.46147422  0.38938798  0.19425751     1.34900
C632        C  0.41816552  0.25333205  0.21116232     0.86700
O633        O  0.00439317  0.39903941  0.21807872    -0.77300
O634        O  0.00412026  0.42394018  0.20261280    -0.87600
C635        C  0.45830921  0.33635893  0.23761196     0.86300
O636        O  0.43222470  0.40319547  0.20157075    -0.65800
O637        O  0.34608701  0.25780948  0.22085398    -0.85100
C638        C  0.42634663  0.40401521  0.21124680     0.87100
C639        C  0.01812455  0.42446363  0.21145205     1.08700
H640        H  0.39138148  0.32851692  0.21869511     0.40500
O641        O  0.40721452  0.31912678  0.21760906    -1.07700
O642        O  0.42369861  0.27690620  0.20425147    -0.64400
Ni643      Ni  0.40534001  0.30951196  0.20297642     1.26300
O644        O  0.43647093  0.39022530  0.21827787    -0.64600
O645        O  0.35685954  0.26933987  0.20347526    -0.76900
C646        C  0.41391197  0.33058755  0.18196010     0.86500
O647        O  0.40679102  0.30431439  0.18796494    -0.64100
Ni648      Ni  0.39235742  0.28206189  0.22763153     1.27400
Ni649      Ni  0.45520414  0.35796055  0.21789717     1.26100
H650        H  0.46969939  0.34284331  0.20128416     0.41100
O651        O  0.39339054  0.36036664  0.09702952    -0.78900
O652        O  0.42335033  0.35573300  0.14431536    -0.63600
O653        O  0.42340061  0.34395140  0.11451671    -1.10200
C654        C  0.31277730  0.23951825  0.12070249     1.08000
O655        O  0.40881960  0.29946421  0.14597395    -0.76800
O656        O  0.39550036  0.25664568  0.12999506    -0.64400
Ni657      Ni  0.43850693  0.38189379  0.10479237     1.34900
C658        C  0.40311047  0.25761335  0.12038750     0.86700
O659        O  0.47356253  0.39171113  0.12906815    -0.77300
O660        O  0.48437567  0.40610407  0.11183925    -0.87600
C661        C  0.41636740  0.32892136  0.15005230     0.86300
O662        O  0.42418824  0.41026116  0.11242355    -0.65800
O663        O  0.32575563  0.24014642  0.12971368    -0.85100
C664        C  0.41221594  0.40911711  0.12156755     0.87100
C665        C  0.49426768  0.40956727  0.12147017     1.08700
H666        H  0.36054126  0.31919489  0.13063306     0.40500
O667        O  0.37736069  0.31157843  0.12878499    -1.07700
O668        O  0.39481570  0.27318403  0.11343338    -0.64400
Ni669      Ni  0.37551284  0.30488042  0.11396379     1.26300
O670        O  0.40737380  0.38549085  0.12839859    -0.64600
O671        O  0.32775570  0.26448023  0.11394808    -0.76900
C672        C  0.37334624  0.32784762  0.09431397     0.86500
O673        O  0.37442056  0.30286686  0.09911682    -0.64100
Ni674      Ni  0.36772453  0.27181757  0.13750609     1.27400
Ni675      Ni  0.42494438  0.35205566  0.12924847     1.26100
H676        H  0.43938475  0.33481679  0.11329901     0.41100
O677        O  0.12774841  0.07026565  0.18454754    -0.78900
O678        O  0.13322407  0.09462132  0.23375601    -0.63600
O679        O  0.14248150  0.10333287  0.20408314    -1.10200
C680        C  0.23873355  0.08084090  0.21108426     1.08000
O681        O  0.19068135  0.13247857  0.23602490    -0.76800
O682        O  0.24075085  0.15219562  0.22059463    -0.64400
Ni683      Ni  0.10086878  0.07243796  0.19603256     1.34900
C684        C  0.24045039  0.16344932  0.21143549     0.86700
O685        O  0.09780516  0.10786834  0.21919782    -0.77300
O686        O  0.06725510  0.07171209  0.20604178    -0.87600
C687        C  0.15815397  0.12016501  0.23871495     0.86300
O688        O  0.09796417  0.03072827  0.20191743    -0.65800
O689        O  0.23579614  0.08740619  0.22074123    -0.85100
C690        C  0.09285536  0.02266811  0.21156562     0.87100
C691        C  0.06934565  0.09046569  0.21393553     1.08700
H692        H  0.16386228  0.06171563  0.21940017     0.40500
O693        O  0.17368351  0.08696532  0.21823427    -1.07700
O694        O  0.21700981  0.14496869  0.20448694    -0.64400
Ni695      Ni  0.18180713  0.09410563  0.20352697     1.26300
O696        O  0.10199909  0.04607197  0.21879484    -0.64600
O697        O  0.22033171  0.08343831  0.20360737    -0.76900
C698        C  0.16022280  0.08478653  0.18195524     0.86500
O699        O  0.18601355  0.09916766  0.18848418    -0.64100
Ni700      Ni  0.21181075  0.10896077  0.22799225     1.27400
Ni701      Ni  0.13591738  0.09739421  0.21892950     1.26100
H702        H  0.15048747  0.12786561  0.20223722     0.41100
O703        O  0.13906090  0.02773166  0.09660285    -0.78900
O704        O  0.14615853  0.06669938  0.14399467    -0.63600
O705        O  0.15655433  0.07438141  0.11410855    -1.10200
C706        C  0.26070230  0.07027030  0.11827024     1.08000
O707        O  0.20419156  0.09095034  0.14793198    -0.76800
O708        O  0.23333889  0.13065784  0.13045332    -0.64400
Ni709      Ni  0.11780829  0.05113481  0.10458523     1.34900
C710        C  0.23781344  0.13853864  0.12077257     0.86700
O711        O  0.11194130  0.08148606  0.12866341    -0.77300
O712        O  0.09343788  0.07243918  0.11174719    -0.87600
C713        C  0.17209013  0.07945769  0.15049855     0.86300
O714        O  0.09010325  0.00837171  0.11228035    -0.65800
O715        O  0.26322462  0.08943056  0.12607866    -0.85100
C716        C  0.09053259  0.50042330  0.12128872     0.87100
C717        C  0.09205146  0.08163908  0.12122938     1.08700
H718        H  0.17902714  0.03380561  0.13032336     0.40500
O719        O  0.18777213  0.05840842  0.12838762    -1.07700
O720        O  0.22821938  0.11495829  0.11355875    -0.64400
Ni721      Ni  0.19406705  0.06358142  0.11350895     1.26300
O722        O  0.11275888  0.01870444  0.12860106    -0.64600
O723        O  0.23186819  0.05252647  0.11320961    -0.76900
C724        C  0.17148743  0.04027650  0.09379643     0.86500
O725        O  0.19655026  0.06589345  0.09868901    -0.64100
Ni726      Ni  0.23018257  0.08871112  0.13625731     1.27400
Ni727      Ni  0.14942312  0.06933993  0.12888777     1.26100
H728        H  0.16640952  0.09945873  0.11262526     0.41100
O729        O  0.43869525  0.07674754  0.18667384    -0.78900
O730        O  0.39443650  0.03690834  0.23320234    -0.63600
O731        O  0.39343794  0.04269782  0.20345196    -1.10200
C732        C  0.41050842  0.15816582  0.21108773     1.08000
O733        O  0.35645799  0.05667928  0.23498254    -0.76800
O734        O  0.33949390  0.08903896  0.21960326    -0.64400
Ni735      Ni  0.42674826  0.03615502  0.19529219     1.34900
C736        C  0.32839002  0.07611089  0.21056149     0.86700
O737        O  0.38548808  0.48992420  0.21785988    -0.77300
O738        O  0.41439411  0.49223782  0.20296290    -0.87600
C739        C  0.36830125  0.03626713  0.23783581     0.86300
O740        O  0.46811376  0.06572377  0.20337601    -0.65800
O741        O  0.40447732  0.14827070  0.22071228    -0.85100
C742        C  0.47261067  0.06959740  0.21319564     0.87100
C743        C  0.39904931  0.47726992  0.21152466     1.08700
H744        H  0.42987452  0.10330926  0.21921604     0.40500
O745        O  0.40478990  0.08742624  0.21788767    -1.07700
O746        O  0.34725686  0.07069999  0.20384451    -0.64400
Ni747      Ni  0.39888182  0.08945528  0.20310534     1.26300
O748        O  0.44700575  0.05841743  0.21970244    -0.64600
O749        O  0.40675314  0.13750134  0.20340269    -0.76900
C750        C  0.41599348  0.08275977  0.18234891     0.86500
O751        O  0.39472438  0.08827791  0.18792977    -0.64100
Ni752      Ni  0.38145066  0.10217340  0.22750749     1.27400
Ni753      Ni  0.39602414  0.03965704  0.21832628     1.26100
H754        H  0.36963803  0.02539693  0.20118242     0.41100
O755        O  0.47673439  0.10885418  0.09752422    -0.78900
O756        O  0.43694488  0.07536012  0.14450618    -0.63600
O757        O  0.42781090  0.07699961  0.11451238    -1.10200
C758        C  0.43086363  0.18496998  0.12040715     1.08000
O759        O  0.39463242  0.08942019  0.14607577    -0.76800
O760        O  0.36491708  0.09878943  0.12916614    -0.64400
Ni761      Ni  0.45184462  0.06301435  0.10488995     1.34900
C762        C  0.36030260  0.09509664  0.11934763     0.86700
O763        O  0.42506404  0.02614159  0.12885394    -0.77300
O764        O  0.42904996  0.01663161  0.11152331    -0.87600
C765        C  0.41662883  0.08197280  0.15020365     0.86300
O766        O  0.49356557  0.07599937  0.11290067    -0.65800
O767        O  0.41489852  0.16991197  0.12889015    -0.85100
C768        C  0.50402494  0.08776768  0.12208132     0.87100
C769        C  0.42247041  0.00606877  0.12108599     1.08700
H770        H  0.46328116  0.13876271  0.13127971     0.40500
O771        O  0.43939821  0.12170184  0.12901010    -1.07700
O772        O  0.38588093  0.10653746  0.11281842    -0.64400
Ni773      Ni  0.43685068  0.12481255  0.11412086     1.26300
O774        O  0.48482531  0.09271901  0.12878930    -0.64600
O775        O  0.44511870  0.17250916  0.11428645    -0.76900
C776        C  0.46419443  0.12863241  0.09461456     0.86500
O777        O  0.43789146  0.12742199  0.09927273    -0.64100
Ni778      Ni  0.40641887  0.12914302  0.13708792     1.27400
Ni779      Ni  0.43326024  0.07453456  0.12930635     1.26100
H780        H  0.40278326  0.06120892  0.11307842     0.41100
O781        O  0.27548797  0.30067196  0.06900974    -0.78900
O782        O  0.24721582  0.26636624  0.02154388    -0.63600
O783        O  0.24760111  0.25483817  0.05128243    -1.10200
C784        C  0.35703228  0.26150470  0.04710468     1.08000
O785        O  0.27754233  0.23836826  0.01773263    -0.76800
O786        O  0.26983603  0.19959367  0.03501651    -0.64400
Ni787      Ni  0.23088017  0.27641826  0.06098256     1.34900
C788        C  0.26598466  0.19154407  0.04467153     0.86700
O789        O  0.19704749  0.25007878  0.03660658    -0.77300
O790        O  0.18537811  0.25417135  0.05371457    -0.87600
C791        C  0.25876424  0.25192180  0.01509951     0.86300
O792        O  0.24433225  0.31939357  0.05353658    -0.65800
O793        O  0.34120466  0.24309023  0.03908388    -0.85100
C794        C  0.25543648  0.33055035  0.04433868     0.87100
C795        C  0.17596762  0.24746358  0.04405449     1.08700
H796        H  0.31152512  0.29674578  0.03537231     0.40500
O797        O  0.29544640  0.27207944  0.03718671    -1.07700
O798        O  0.27952159  0.21497840  0.05192652    -0.64400
Ni799      Ni  0.29605358  0.26619121  0.05203807     1.26300
O800        O  0.26096253  0.31233673  0.03743298    -0.64600
O801        O  0.34497247  0.27785249  0.05242763    -0.76900
C802        C  0.29603185  0.28880780  0.07174239     0.86500
O803        O  0.29578261  0.26336986  0.06684409    -0.64100
Ni804      Ni  0.30747861  0.24216251  0.02913251     1.27400
Ni805      Ni  0.24651414  0.26171833  0.03657594     1.26100
H806        H  0.23254017  0.22954462  0.05247141     0.41100
O807        O  0.22023496  0.25687112  0.98120073    -0.78900
O808        O  0.20464342  0.23434383  0.93188724    -0.63600
O809        O  0.20372940  0.22462868  0.96155708    -1.10200
C810        C  0.32241317  0.24675329  0.95479790     1.08000
O811        O  0.22240287  0.19498838  0.92984802    -0.76800
O812        O  0.25146199  0.17453446  0.94548059    -0.64400
Ni813      Ni  0.19145149  0.25435455  0.96964380     1.34900
C814        C  0.24131243  0.16444227  0.95480754     0.86700
O815        O  0.15522888  0.22066579  0.94610289    -0.77300
O816        O  0.15878111  0.25484866  0.95956074    -0.87600
C817        C  0.20326330  0.20835230  0.92699401     0.86300
O818        O  0.22979213  0.29698576  0.96404310    -0.65800
O819        O  0.31235079  0.23845705  0.94523387    -0.85100
C820        C  0.23428784  0.30550180  0.95441736     0.87100
C821        C  0.14343271  0.23733795  0.95137181     1.08700
H822        H  0.26727695  0.26606428  0.94620605     0.40500
O823        O  0.25163878  0.24093100  0.94751723    -1.07700
O824        O  0.23766889  0.18387078  0.96171241    -0.64400
Ni825      Ni  0.25264052  0.23463194  0.96225483     1.26300
O826        O  0.22145029  0.28245664  0.94703154    -0.64600
O827        O  0.30198151  0.24587318  0.96221499    -0.76900
C828        C  0.23996570  0.24436835  0.98378273     0.86500
O829        O  0.25228304  0.23074039  0.97731187    -0.64100
Ni830      Ni  0.26693775  0.21770493  0.93793653     1.27400
Ni831      Ni  0.20371678  0.23099865  0.94669251     1.26100
H832        H  0.18748329  0.19992055  0.96328241     0.41100
O833        O  0.03283225  0.22071690  0.06787035    -0.78900
O834        O  0.02742990  0.25431385  0.02096725    -0.63600
O835        O  0.01517136  0.25174757  0.05083861    -1.10200
C836        C  0.41046618  0.14608749  0.04519776     1.08000
O837        O  0.47194775  0.24194462  0.01981040    -0.76800
O838        O  0.43169444  0.23196137  0.03640962    -0.64400
Ni839      Ni  0.05301073  0.26654980  0.06056287     1.34900
C840        C  0.43134713  0.23660143  0.04619417     0.86700
O841        O  0.06326407  0.30295067  0.03662402    -0.77300
O842        O  0.07558735  0.31302462  0.05398350    -0.87600
C843        C  0.00083281  0.24858736  0.01527458     0.86300
O844        O  0.08267968  0.25455447  0.05263099    -0.65800
O845        O  0.41041690  0.16081542  0.03655041    -0.85100
C846        C  0.08128600  0.24210411  0.04354120     0.87100
C847        C  0.07951221  0.32339305  0.04440410     1.08700
H848        H  0.48938779  0.19108686  0.03467270     0.40500
O849        O  0.48293274  0.20853919  0.03682029    -1.07700
O850        O  0.44544519  0.22548672  0.05282649    -0.64400
Ni851      Ni  0.47714560  0.20615788  0.05169314     1.26300
O852        O  0.05704578  0.23658847  0.03680021    -0.64600
O853        O  0.43663443  0.15878466  0.05158166    -0.76900
C854        C  0.50120495  0.20367328  0.07134412     0.86500
O855        O  0.47583727  0.20416572  0.06657656    -0.64100
Ni856      Ni  0.44318287  0.20179110  0.02854520     1.27400
Ni857      Ni  0.02368085  0.25468768  0.03608873     1.26100
H858        H  0.00553277  0.26720961  0.05222112     0.41100
O859        O  0.03050841  0.25754723  0.97927899    -0.78900
O860        O  0.02377352  0.29477088  0.93237243    -0.63600
O861        O  0.01720922  0.28900432  0.96209431    -1.10200
C862        C  0.42016616  0.17289416  0.95472021     1.08000
O863        O  0.46576024  0.27419949  0.93068648    -0.76800
O864        O  0.41678420  0.24148119  0.94608805    -0.64400
Ni865      Ni  0.05800150  0.29620678  0.96991833     1.34900
C866        C  0.41785115  0.25356892  0.95520854     0.86700
O867        O  0.06104825  0.34028691  0.94740928    -0.77300
O868        O  0.09026957  0.33605182  0.96137860    -0.87600
C869        C  0.99811343  0.29447381  0.92759059     0.86300
O870        O  0.06674390  0.26421195  0.96202457    -0.65800
O871        O  0.42364109  0.18287020  0.94510792    -0.85100
C872        C  0.06895278  0.26219817  0.95219262     0.87100
C873        C  0.08862674  0.35191605  0.95316224     1.08700
H874        H  0.49465498  0.22980520  0.94653852     0.40500
O875        O  0.48451414  0.24484731  0.94789963    -1.07700
O876        O  0.44196218  0.25906492  0.96199880    -0.64400
Ni877      Ni  0.47650846  0.24240509  0.96267920     1.26300
O878        O  0.05613288  0.27525159  0.94575539    -0.64600
O879        O  0.43750471  0.19358237  0.96236645    -0.76900
C880        C  0.50039065  0.24983684  0.98351212     0.86500
O881        O  0.47341374  0.24312599  0.97783631    -0.64100
Ni882      Ni  0.44617488  0.22894948  0.93825978     1.27400
Ni883      Ni  0.02239664  0.29216893  0.94720292     1.26100
H884        H  0.01029917  0.30589224  0.96448046     0.41100
O885        O  0.19696877  0.46906820  0.06856731    -0.78900
O886        O  0.22697448  0.47094950  0.02127744    -0.63600
O887        O  0.24250849  0.48513250  0.05090176    -1.10200
C888        C  0.23715493  0.08969470  0.04441421     1.08000
O889        O  0.27360666  0.02908776  0.01969769    -0.76800
O890        O  0.30247231  0.07401717  0.03531364    -0.64400
Ni891      Ni  0.22084745  0.44781963  0.06086623     1.34900
C892        C  0.30949746  0.07242892  0.04486024     0.86700
O893        O  0.24238226  0.43545315  0.03652411    -0.77300
O894        O  0.24271766  0.42385133  0.05385161    -0.87600
C895        C  0.24614612  0.49737387  0.01532722     0.86300
O896        O  0.17783908  0.41822421  0.05351164    -0.65800
O897        O  0.24787267  0.08823669  0.03522322    -0.85100
C898        C  0.16568210  0.41938552  0.04457356     0.87100
C899        C  0.24695847  0.41877819  0.04416574     1.08700
H900        H  0.20499468  0.00961062  0.03479324     0.40500
O901        O  0.22948601  0.01726154  0.03658261    -1.07700
O902        O  0.28588321  0.05546106  0.05178641    -0.64400
Ni903      Ni  0.23469435  0.02430801  0.05136238     1.26300
O904        O  0.18329073  0.44325396  0.03769270    -0.64600
O905        O  0.22832986  0.06535049  0.05132756    -0.76900
C906        C  0.20927025  0.00166809  0.07096861     0.86500
O907        O  0.23566007  0.02642517  0.06620131    -0.64100
Ni908      Ni  0.25921664  0.05678739  0.02774246     1.27400
Ni909      Ni  0.23421397  0.47578523  0.03626839     1.26100
H910        H  0.26779234  0.49454210  0.05188314     0.41100
O911        O  0.22226745  0.46695080  0.97931480    -0.78900
O912        O  0.26506848  0.47005346  0.93294721    -0.63600
O913        O  0.26764457  0.47899966  0.96260386    -1.10200
C914        C  0.24945646  0.07653868  0.95508060     1.08000
O915        O  0.30156906  0.02830726  0.93060807    -0.76800
O916        O  0.32006837  0.07863386  0.94582157    -0.64400
Ni917      Ni  0.23608017  0.43908827  0.97109466     1.34900
C918        C  0.33192163  0.07759805  0.95482298     0.86700
O919        O  0.27230773  0.43227654  0.94814743    -0.77300
O920        O  0.24639501  0.40698420  0.96349875    -0.87600
C921        C  0.29094524  0.49519097  0.92813769     0.86300
O922        O  0.19408370  0.42485141  0.96319380    -0.65800
O923        O  0.25479788  0.07242043  0.94540786    -0.85100
C924        C  0.18867055  0.42505958  0.95346840     0.87100
C925        C  0.26050953  0.40675448  0.95475609     1.08700
H926        H  0.23010866  0.00162176  0.94708842     0.40500
O927        O  0.25538851  0.01127597  0.94817054    -1.07700
O928        O  0.31393356  0.05371449  0.96168763    -0.64400
Ni929      Ni  0.26293975  0.02003006  0.96283595     1.26300
O930        O  0.21349406  0.44003371  0.94674610    -0.64600
O931        O  0.25359067  0.05948485  0.96268189    -0.76900
C932        C  0.24990462  0.99774535  0.98370564     0.86500
O933        O  0.26915827  0.02428326  0.97781765    -0.64100
Ni934      Ni  0.27722619  0.04904376  0.93835432     1.27400
Ni935      Ni  0.26444874  0.47228965  0.94777775     1.26100
H936        H  0.29180477  0.48652202  0.96475752     0.41100
C937        C  0.25149404  0.00045946  0.99489227    -0.11300
C938        C  0.24335977  0.49519221  0.00411525    -0.12800
C939        C  0.39352447  0.13628615  0.95695777    -0.11300
C940        C  0.36703095  0.10697446  0.95719650    -0.12800
C941        C  0.12095300  0.38340532  0.95021938    -0.11300
C942        C  0.15218809  0.40551414  0.95016936    -0.12800
C943        C  0.37769991  0.11450562  0.04784760    -0.11300
C944        C  0.34641769  0.09238602  0.04778348    -0.12800
C945        C  0.10516000  0.36025842  0.04235472    -0.11300
C946        C  0.13088070  0.38994613  0.04220719    -0.12800
C947        C  0.49870228  0.24763408  0.99481052    -0.11300
C948        C  0.00219217  0.24932837  0.00399456    -0.12800
C949        C  0.35886201  0.25617024  0.95727956    -0.11300
C950        C  0.38821040  0.25893249  0.95770362    -0.12800
C951        C  0.11223350  0.23843455  0.94814972    -0.11300
C952        C  0.08939339  0.24662127  0.94845703    -0.12800
C953        C  0.23973874  0.10344056  0.95738782    -0.11300
C954        C  0.23650308  0.12976829  0.95749606    -0.12800
C955        C  0.25172151  0.34303939  0.95204663    -0.11300
C956        C  0.26029906  0.37425063  0.95221267    -0.12800
C957        C  0.38895055  0.26153112  0.05012235    -0.11300
C958        C  0.41171034  0.25326291  0.04974070    -0.12800
C959        C  0.13963746  0.23828831  0.04149863    -0.11300
C960        C  0.11054863  0.23612178  0.04104402    -0.12800
C961        C  0.23844917  0.12261762  0.04709872    -0.11300
C962        C  0.24809274  0.15409750  0.04721392    -0.12800
C963        C  0.25607281  0.39135043  0.04191664    -0.11300
C964        C  0.25942328  0.36505779  0.04180580    -0.12800
C965        C  0.24769848  0.24642060  0.99475039    -0.11300
C966        C  0.25117161  0.25002574  0.00412604    -0.12800
C967        C  0.48117706  0.15478908  0.08636106    -0.11300
C968        C  0.49243878  0.17786664  0.07968086    -0.12800
C969        C  0.41551867  0.08296386  0.17100706    -0.11300
C970        C  0.41712196  0.08109867  0.16153936    -0.12800
C971        C  0.06489032  0.09100780  0.12361616    -0.11300
C972        C  0.03799008  0.09325491  0.12403738    -0.12800
C973        C  0.32406976  0.07913651  0.11567429    -0.11300
C974        C  0.29298689  0.07087601  0.11524405    -0.12800
C975        C  0.18074993  0.02337277  0.08557479    -0.11300
C976        C  0.19242782  0.01146631  0.07907248    -0.12800
C977        C  0.16633689  0.08416551  0.17092542    -0.11300
C978        C  0.16648094  0.08136567  0.16150691    -0.12800
C979        C  0.26598401  0.07173845  0.20856368    -0.11300
C980        C  0.29293681  0.06961728  0.20808527    -0.12800
C981        C  0.03705566  0.09000262  0.21684154    -0.11300
C982        C  0.00620850  0.08252996  0.21648557    -0.12800
C983        C  0.40668650  0.43834650  0.12418449    -0.11300
C984        C  0.41015172  0.46787076  0.12402044    -0.12800
C985        C  0.42069865  0.23840437  0.11744777    -0.11300
C986        C  0.43006980  0.21651591  0.11756208    -0.12800
C987        C  0.03087865  0.43927917  0.12360648    -0.11300
C988        C  0.06038386  0.46571922  0.12381290    -0.12800
C989        C  0.28053883  0.20707373  0.11809410    -0.11300
C990        C  0.25788622  0.17586886  0.11814168    -0.12800
C991        C  0.34655485  0.31834707  0.08625159    -0.11300
C992        C  0.32261617  0.30628597  0.07984658    -0.12800
C993        C  0.07301655  0.48809227  0.21414297    -0.11300
C994        C  0.05019046  0.45700465  0.21405176    -0.12800
C995        C  0.27025739  0.19845636  0.20898892    -0.11300
C996        C  0.29959635  0.22512440  0.20911066    -0.12800
C997        C  0.39974580  0.44550493  0.21418109    -0.11300
C998        C  0.40894822  0.42346463  0.21416911    -0.12800
C999        C  0.42383473  0.22408861  0.20875131    -0.11300
C1000       C  0.42066150  0.19470889  0.20889617    -0.12800
C1001       C  0.41652191  0.33050823  0.16130151    -0.11300
C1002       C  0.41410974  0.32803566  0.17073839    -0.12800
C1003       C  0.33648050  0.48413232  0.25265987    -0.11300
C1004       C  0.35051375  0.01004694  0.24602418    -0.12800
C1005       C  0.33210925  0.41129882  0.33770436    -0.11300
C1006       C  0.32959285  0.41120701  0.32823903    -0.12800
C1007       C  0.44204774  0.40191603  0.37542194    -0.11300
C1008       C  0.47117580  0.40409388  0.37584717    -0.12800
C1009       C  0.23904108  0.41266580  0.38268265    -0.11300
C1010       C  0.21624566  0.42096452  0.38289190    -0.12800
C1011       C  0.19198294  0.42325350  0.29127786    -0.11300
C1012       C  0.22101829  0.42539331  0.29161287    -0.12800
C1013       C  0.44170769  0.40127223  0.28161273    -0.11300
C1014       C  0.41905126  0.40971209  0.28208461    -0.12800
C1015       C  0.07959037  0.41394833  0.33758281    -0.11300
C1016       C  0.07839441  0.41241899  0.32814720    -0.09200
C1017       C  0.01117833  0.35729683  0.25240450    -0.11300
C1018       C  0.48551031  0.34624907  0.24554862    -0.12800
C1019       C  0.43644874  0.02627996  0.37579673    -0.11300
C1020       C  0.46258543  0.05588414  0.37557529    -0.12800
C1021       C  0.20976190  0.27605678  0.38245739    -0.11300
C1022       C  0.17836567  0.25429786  0.38236665    -0.12800
C1023       C  0.09220328  0.02989711  0.37535745    -0.11300
C1024       C  0.08979343  0.05663808  0.37559104    -0.12800
C1025       C  0.07683478  0.31637877  0.38128957    -0.11300
C1026       C  0.06887391  0.28539584  0.38134924    -0.12800
C1027       C  0.48386861  0.07346840  0.28330071    -0.11300
C1028       C  0.45258243  0.05146320  0.28334947    -0.12800
C1029       C  0.19834689  0.27115485  0.29078943    -0.11300
C1030       C  0.22444465  0.30066783  0.29068254    -0.12800
C1031       C  0.09221133  0.04024196  0.28501476    -0.11300
C1032       C  0.08392613  0.00917335  0.28502654    -0.12800
C1033       C  0.07321395  0.27053682  0.29041168    -0.11300
C1034       C  0.07016586  0.29698386  0.29059177    -0.12800
C1035       C  0.08324658  0.16505174  0.32834430    -0.11300
C1036       C  0.08278956  0.16245751  0.33779351    -0.12800
C1037       C  0.13668200  0.14937616  0.25323748    -0.11300
C1038       C  0.14861401  0.13726325  0.24685218    -0.12800
C1039       C  0.01260785  0.18682428  0.41946114    -0.11300
C1040       C  0.02382813  0.17453814  0.41294513    -0.12800
C1041       C  0.99894847  0.24480263  0.50494533    -0.11300
C1042       C  0.49656284  0.24335026  0.49541703    -0.12800
C1043       C  0.11132074  0.37104300  0.45217283    -0.11300
C1044       C  0.08921821  0.33964152  0.45211276    -0.12800
C1045       C  0.39276448  0.12964983  0.45686408    -0.11300
C1046       C  0.36343516  0.10317781  0.45648108    -0.12800
C1047       C  0.15179884  0.46933327  0.41320039    -0.11300
C1048       C  0.17527452  0.48121485  0.41973893    -0.12800
C1049       C  0.25182588  0.49696611  0.50431439    -0.11300
C1050       C  0.25060335  0.99551560  0.49414221    -0.12800
C1051       C  0.13751575  0.39331247  0.54214924    -0.11300
C1052       C  0.10791702  0.36709441  0.54194832    -0.12800
C1053       C  0.38236748  0.12017477  0.54869700    -0.11300
C1054       C  0.40494482  0.15120362  0.54883359    -0.12800
C1055       C  0.37112409  0.25945845  0.45786739    -0.11300
C1056       C  0.39782772  0.25698402  0.45763327    -0.12800
C1057       C  0.12545337  0.23502933  0.44915947    -0.11300
C1058       C  0.15649203  0.24326855  0.44935176    -0.12800
C1059       C  0.24352069  0.13468644  0.45721813    -0.11300
C1060       C  0.23998819  0.10506835  0.45738454    -0.12800
C1061       C  0.26033721  0.38102496  0.45065994    -0.11300
C1062       C  0.25067447  0.40274372  0.45079945    -0.12800
C1063       C  0.31314722  0.31898124  0.41965856    -0.11300
C1064       C  0.32449519  0.34252868  0.41312510    -0.12800
C1065       C  0.13192769  0.23840148  0.54202812    -0.11300
C1066       C  0.10553094  0.24138380  0.54234089    -0.12800
C1067       C  0.34478877  0.25004837  0.54859311    -0.11300
C1068       C  0.37614202  0.25952530  0.54858765    -0.12800
C1069       C  0.26162820  0.39015696  0.54201047    -0.11300
C1070       C  0.25885385  0.36082135  0.54217119    -0.12800
C1071       C  0.24395065  0.08711927  0.54820845    -0.11300
C1072       C  0.23580193  0.11006331  0.54817400    -0.12800
C1073       C  0.24918838  0.24749250  0.50435476    -0.11300
C1074       C  0.25095683  0.24666124  0.49489443    -0.12800
C1075       C  0.00654081  0.32028505  0.91929586    -0.11300
C1076       C  0.01812672  0.34357880  0.91269107    -0.12800
C1077       C  0.08016605  0.41797305  0.83772500    -0.11300
C1078       C  0.08290450  0.41720898  0.82830009    -0.12800
C1079       C  0.22929388  0.42388745  0.79011694    -0.11300
C1080       C  0.20270881  0.42661855  0.79062738    -0.12800
C1081       C  0.46149922  0.40751146  0.78567364    -0.11300
C1082       C  0.49262610  0.41587340  0.78580304    -0.12800
C1083       C  0.31928851  0.47371684  0.91339111    -0.11300
C1084       C  0.30805250  0.48585612  0.91997136    -0.12800
C1085       C  0.17456159  0.41932303  0.88272365    -0.11300
C1086       C  0.20564451  0.42745466  0.88306104    -0.12800
C1087       C  0.46019464  0.40399990  0.87447587    -0.11300
C1088       C  0.43325087  0.40617380  0.87467557    -0.12800
C1089       C  0.33414916  0.42021557  0.83732882    -0.11300
C1090       C  0.33339913  0.41849722  0.82787705    -0.12800
C1091       C  0.08714386  0.07567959  0.78233745    -0.11300
C1092       C  0.09592557  0.05332557  0.78218456    -0.12800
C1093       C  0.07623090  0.30506989  0.79106976    -0.11300
C1094       C  0.07429223  0.27612784  0.79126054    -0.12800
C1095       C  0.19950357  0.27349428  0.78987992    -0.11300
C1096       C  0.22911616  0.29963355  0.79002991    -0.12800
C1097       C  0.42611152  0.01463045  0.78415036    -0.11300
C1098       C  0.44772578  0.04605448  0.78422090    -0.12800
C1099       C  0.17682401  0.19191053  0.91879481    -0.11300
C1100       C  0.15300589  0.18037531  0.91234942    -0.12800
C1101       C  0.08462056  0.16592856  0.82763105    -0.11300
C1102       C  0.08227111  0.16328339  0.83708056    -0.12800
C1103       C  0.43937178  0.03324509  0.87627325    -0.11300
C1104       C  0.46860800  0.05997050  0.87657312    -0.12800
C1105       C  0.23928005  0.32169221  0.88093006    -0.11300
C1106       C  0.21655056  0.29059070  0.88089037    -0.12800
C1107       C  0.08788618  0.02865596  0.87523026    -0.11300
C1108       C  0.09157954  0.05831842  0.87499278    -0.12800
C1109       C  0.07725968  0.25876864  0.88084799    -0.11300
C1110       C  0.06851495  0.28121926  0.88083226    -0.12800
C1111       C  0.15534067  0.01373654  0.74591335    -0.11300
C1112       C  0.14676249  0.48830682  0.75305010    -0.12800
C1113       C  0.16734858  0.08262917  0.66112651    -0.11300
C1114       C  0.17039702  0.08487648  0.67058055    -0.12800
C1115       C  0.19018504  0.17646655  0.57965545    -0.11300
C1116       C  0.17782620  0.15261570  0.58609515    -0.12800
C1117       C  0.27493188  0.19855331  0.70890607    -0.11300
C1118       C  0.30153471  0.22791309  0.70883696    -0.12800
C1119       C  0.01449028  0.42834553  0.71441447    -0.11300
C1120       C  0.04590682  0.44997819  0.71459255    -0.12800
C1121       C  0.35282647  0.36355551  0.75290937    -0.11300
C1122       C  0.36488782  0.35181241  0.74648318    -0.12800
C1123       C  0.03582324  0.44346447  0.62442715    -0.11300
C1124       C  0.06177251  0.47328336  0.62441865    -0.12800
C1125       C  0.28954949  0.21647829  0.61740112    -0.11300
C1126       C  0.32065726  0.23913370  0.61741863    -0.12800
C1127       C  0.41590333  0.33008105  0.66113099    -0.11300
C1128       C  0.41319361  0.33028188  0.67052595    -0.12800
C1129       C  0.48757597  0.30576925  0.57956440    -0.11300
C1130       C  0.47514930  0.31776176  0.58580018    -0.12800
C1131       C  0.40977028  0.46118103  0.71647972    -0.11300
C1132       C  0.41805044  0.49222218  0.71611656    -0.12800
C1133       C  0.43025459  0.20563671  0.70799974    -0.11300
C1134       C  0.42817727  0.23260523  0.70841736    -0.12800
C1135       C  0.07705561  0.08914920  0.71481053    -0.11300
C1136       C  0.05538269  0.09885064  0.71504596    -0.12800
C1137       C  0.27624077  0.07439297  0.70845317    -0.11300
C1138       C  0.30566080  0.07760169  0.70872360    -0.12800
C1139       C  0.01380413  0.15883979  0.75284959    -0.11300
C1140       C  0.49072779  0.14713805  0.74607218    -0.12800
C1141       C  0.27915183  0.06676780  0.61664746    -0.11300
C1142       C  0.25709906  0.07603360  0.61663938    -0.12800
C1143       C  0.02902942  0.09161464  0.62425084    -0.11300
C1144       C  0.05841047  0.09452832  0.62438682    -0.12800
C1145       C  0.42575010  0.20415510  0.61494056    -0.11300
C1146       C  0.41729663  0.17305213  0.61537160    -0.12800
C1147       C  0.40383695  0.43108902  0.62368920    -0.11300
C1148       C  0.40134137  0.45790560  0.62414823    -0.12800
C1149       C  0.41471999  0.08049323  0.66119247    -0.11300
C1150       C  0.41431630  0.08280595  0.67065864    -0.12800
C1151       C  0.32010920  0.00632627  0.57915138    -0.11300
C1152       C  0.34348177  0.01712166  0.58576254    -0.12800
O1153       O  0.41078125  0.60507841  0.64574169    -0.78900
O1154       O  0.37203327  0.56386727  0.59923778    -0.63600
O1155       O  0.37578869  0.56030263  0.62893064    -1.10200
C1156       C  0.49051410  0.57458315  0.62166033     1.08000
O1157       O  0.38983933  0.52434795  0.59728273    -0.76800
O1158       O  0.42036333  0.50461652  0.61265292    -0.64400
Ni1159     Ni  0.37049730  0.59434865  0.63715721     1.34900
C1160       C  0.40949473  0.99413667  0.62179416     0.86700
O1161       O  0.32680276  0.55884695  0.61416643    -0.77300
O1162       O  0.32957021  0.58698680  0.62927854    -0.87600
C1163       C  0.37061606  0.53765393  0.59446374     0.86300
O1164       O  0.40108577  0.63574300  0.62921181    -0.65800
O1165       O  0.48093126  0.56874355  0.61199413    -0.85100
C1166       C  0.40587364  0.64044000  0.61942384     0.87100
C1167       C  0.31460996  0.57266639  0.62061522     1.08700
H1168       H  0.43738559  0.59586819  0.61344013     0.40500
O1169       O  0.42075516  0.57087793  0.61464195    -1.07700
O1170       O  0.40251014  0.51239513  0.62849809    -0.64400
Ni1171     Ni  0.42199783  0.56426115  0.62937460     1.26300
O1172       O  0.39438010  0.61507310  0.61287290    -0.64600
O1173       O  0.46964588  0.57115287  0.62924363    -0.76900
C1174       C  0.41635140  0.58205661  0.65003404     0.86500
O1175       O  0.42039167  0.55980389  0.64448999    -0.64100
Ni1176     Ni  0.43505784  0.54737448  0.60497294     1.27400
Ni1177     Ni  0.37363155  0.56401604  0.61407132     1.26100
H1178       H  0.35784287  0.53659661  0.63108793     0.41100
O1179       O  0.44678396  0.64265288  0.73501086    -0.78900
O1180       O  0.41553464  0.60688264  0.68776822    -0.63600
O1181       O  0.41679216  0.59566217  0.71761131    -1.10200
C1182       C  0.02548791  0.59798062  0.71417702     1.08000
O1183       O  0.42790852  0.56352561  0.68601315    -0.76800
O1184       O  0.43709866  0.53324839  0.70271863    -0.64400
Ni1185     Ni  0.40148260  0.61816797  0.72737110     1.34900
C1186       C  0.43405455  0.52844915  0.71253233     0.86700
O1187       O  0.36636756  0.59357592  0.70318383    -0.77300
O1188       O  0.35536317  0.59551113  0.72046723    -0.87600
C1189       C  0.42070473  0.58581786  0.68200445     0.86300
O1190       O  0.41479578  0.66060127  0.71969584    -0.65800
O1191       O  0.00885353  0.57868188  0.70639263    -0.85100
C1192       C  0.42730998  0.67198019  0.71063095     0.87100
C1193       C  0.34551200  0.58953708  0.71082896     1.08700
H1194       H  0.47877394  0.63180736  0.70083557     0.40500
O1195       O  0.46156729  0.60793454  0.70308150    -1.07700
O1196       O  0.44630037  0.55384145  0.71912059    -0.64400
Ni1197     Ni  0.46478303  0.60477197  0.71794238     1.26300
O1198       O  0.43276362  0.65349624  0.70379231    -0.64600
O1199       O  0.01464224  0.61618155  0.71906083    -0.76900
C1200       C  0.46746599  0.63091565  0.73770321     0.86500
O1201       O  0.46752454  0.60555892  0.73280809    -0.64100
Ni1202     Ni  0.46780827  0.57459867  0.69481787     1.27400
Ni1203     Ni  0.41461615  0.60206724  0.70286883     1.26100
H1204       H  0.40106809  0.57049936  0.71885481     0.41100
O1205       O  0.40735347  0.79356611  0.64761253    -0.78900
O1206       O  0.43320228  0.80310469  0.59842317    -0.63600
O1207       O  0.44077728  0.81057535  0.62813218    -1.10200
C1208       C  0.41682543  0.90599779  0.62156283     1.08000
O1209       O  0.47089385  0.86072977  0.59648895    -0.76800
O1210       O  0.48960749  0.90936733  0.61227744    -0.64400
Ni1211     Ni  0.41015560  0.76806634  0.63588017     1.34900
C1212       C  0.99729385  0.90919027  0.62130628     0.86700
O1213       O  0.44716511  0.76773220  0.61279768    -0.77300
O1214       O  0.41010049  0.73572304  0.62559025    -0.87600
C1215       C  0.45877535  0.82843599  0.59360203     0.86300
O1216       O  0.36846116  0.76529947  0.63005562    -0.65800
O1217       O  0.42481147  0.90433760  0.61196195    -0.85100
C1218       C  0.36068782  0.76151699  0.62037812     0.87100
C1219       C  0.43000298  0.73894003  0.61790323     1.08700
H1220       H  0.39918010  0.83219637  0.61276160     0.40500
O1221       O  0.42435725  0.84215081  0.61409881    -1.07700
O1222       O  0.48091587  0.88514070  0.62835889    -0.64400
Ni1223     Ni  0.43028116  0.84902162  0.62887934     1.26300
O1224       O  0.38424048  0.77066444  0.61318207    -0.64600
O1225       O  0.41851183  0.88677278  0.62895231    -0.76900
C1226       C  0.42046571  0.82574946  0.65035670     0.86500
O1227       O  0.43411454  0.85198708  0.64396297    -0.64100
Ni1228     Ni  0.44685693  0.88106217  0.60461811     1.27400
Ni1229     Ni  0.43554688  0.80499609  0.61324594     1.26100
H1230       H  0.46532441  0.81897906  0.63004837     0.41100
O1231       O  0.36649657  0.80679761  0.73591408    -0.78900
O1232       O  0.40103507  0.81157095  0.68838230    -0.63600
O1233       O  0.41226368  0.82447810  0.71814230    -1.10200
C1234       C  0.40733783  0.92776894  0.71348421     1.08000
O1235       O  0.43001835  0.86978080  0.68441484    -0.76800
O1236       O  0.46832036  0.90014872  0.70192219    -0.64400
Ni1237     Ni  0.39091836  0.78648956  0.72795826     1.34900
C1238       C  0.47585831  0.90513762  0.71160701     0.86700
O1239       O  0.41722713  0.77826785  0.70364491    -0.77300
O1240       O  0.41330671  0.76315659  0.72080182    -0.87600
C1241       C  0.41568148  0.83730403  0.68184585     0.86300
O1242       O  0.34805273  0.75704983  0.72053432    -0.65800
O1243       O  0.42620895  0.92988575  0.70561626    -0.85100
C1244       C  0.33680181  0.75698835  0.71135738     0.87100
C1245       C  0.42016925  0.76028454  0.71117149     1.08700
H1246       H  0.37118074  0.84652099  0.70182555     0.40500
O1247       O  0.39567648  0.85487173  0.70379370    -1.07700
O1248       O  0.45206795  0.89604651  0.71871596    -0.64400
Ni1249     Ni  0.40087746  0.86162143  0.71865568     1.26300
O1250       O  0.35504759  0.78030067  0.70435165    -0.64600
O1251       O  0.38975388  0.89927484  0.71872060    -0.76900
C1252       C  0.37791958  0.83922324  0.73853100     0.86500
O1253       O  0.40288575  0.86452572  0.73349868    -0.64100
Ni1254     Ni  0.42663016  0.89650069  0.69575570     1.27400
Ni1255     Ni  0.40569419  0.81610652  0.70342471     1.26100
H1256       H  0.43754036  0.83475820  0.71935987     0.41100
O1257       O  0.19859951  0.59640738  0.64657870    -0.78900
O1258       O  0.19536285  0.62829403  0.59953434    -0.63600
O1259       O  0.18662390  0.62709067  0.62918118    -1.10200
C1260       C  0.08853842  0.50996144  0.62213463     1.08000
O1261       O  0.13799850  0.60995106  0.59751832    -0.76800
O1262       O  0.08761034  0.57925380  0.61274890    -0.64400
Ni1263     Ni  0.22634490  0.63711062  0.63796157     1.34900
C1264       C  0.08873277  0.59211029  0.62175973     0.86700
O1265       O  0.23389636  0.67552793  0.61414386    -0.77300
O1266       O  0.25805778  0.67869137  0.63001818    -0.87600
C1267       C  0.17048808  0.62962488  0.59474574     0.86300
O1268       O  0.24219160  0.60928759  0.63069001    -0.65800
O1269       O  0.09246249  0.51942274  0.61246038    -0.85100
C1270       C  0.24136921  0.60120657  0.62111772     0.87100
C1271       C  0.25888559  0.69081200  0.62085694     1.08700
H1272       H  0.16318524  0.56424486  0.61408373     0.40500
O1273       O  0.15413681  0.58037954  0.61513178    -1.07700
O1274       O  0.11245409  0.59757166  0.62865793    -0.64400
Ni1275     Ni  0.14579343  0.57969704  0.62982096     1.26300
O1276       O  0.22515807  0.60854945  0.61410414    -0.64600
O1277       O  0.10584091  0.53108089  0.62973516    -0.76900
C1278       C  0.16911623  0.58883194  0.65066757     0.86500
O1279       O  0.14228841  0.58204812  0.64492437    -0.64100
Ni1280     Ni  0.11647064  0.56502012  0.60532497     1.27400
Ni1281     Ni  0.19341642  0.62800786  0.61438179     1.26100
H1282       H  0.17917355  0.64416021  0.63086776     0.41100
O1283       O  0.20085385  0.55838877  0.73546061    -0.78900
O1284       O  0.19513270  0.59157232  0.68838405    -0.63600
O1285       O  0.18357169  0.58938806  0.71829800    -1.10200
C1286       C  0.07762317  0.98086950  0.71100773     1.08000
O1287       O  0.13906280  0.57833861  0.68676141    -0.76800
O1288       O  0.10011738  0.56861472  0.70361108    -0.64400
Ni1289     Ni  0.22156694  0.60411825  0.72798183     1.34900
C1290       C  0.09891144  0.57183533  0.71343510     0.86700
O1291       O  0.23167938  0.64028288  0.70393192    -0.77300
O1292       O  0.24507348  0.65053080  0.72122833    -0.87600
C1293       C  0.16859086  0.58598917  0.68268257     0.86300
O1294       O  0.25042109  0.59123588  0.72004984    -0.65800
O1295       O  0.07778469  0.99518207  0.70226598    -0.85100
C1296       C  0.24915864  0.57939550  0.71088553     0.87100
C1297       C  0.24901922  0.66072125  0.71161559     1.08700
H1298       H  0.15766491  0.52792578  0.70137237     0.40500
O1299       O  0.15084885  0.54493784  0.70370153    -1.07700
O1300       O  0.11229785  0.55957659  0.71994266    -0.64400
Ni1301     Ni  0.14491337  0.54135879  0.71857311     1.26300
O1302       O  0.22497732  0.57400183  0.70415650    -0.64600
O1303       O  0.10300097  0.99475549  0.71764745    -0.76900
C1304       C  0.16843433  0.53780384  0.73818558     0.86500
O1305       O  0.14315491  0.53832714  0.73340792    -0.64100
Ni1306     Ni  0.11083631  0.53825102  0.69557690     1.27400
Ni1307     Ni  0.19171653  0.59204883  0.70352124     1.26100
H1308       H  0.17413365  0.60501834  0.71968457     0.41100
O1309       O  0.08535272  0.69726649  0.85390183    -0.78900
O1310       O  0.12283879  0.69441303  0.90049491    -0.63600
O1311       O  0.11824700  0.68601628  0.87083964    -1.10200
C1312       C  0.00219120  0.58773008  0.87872024     1.08000
O1313       O  0.10448236  0.63705693  0.90239840    -0.76800
O1314       O  0.07114059  0.58645116  0.88724588    -0.64400
Ni1315     Ni  0.12618557  0.72578414  0.86237963     1.34900
C1316       C  0.08333199  0.58764990  0.87812940     0.86700
O1317       O  0.16849941  0.73256232  0.88549783    -0.77300
O1318       O  0.16785948  0.75827188  0.87022450    -0.87600
C1319       C  0.12458112  0.66955034  0.90512201     0.86300
O1320       O  0.09695407  0.73865585  0.87010870    -0.65800
O1321       O  0.01220580  0.59226936  0.88835240    -0.85100
C1322       C  0.09111492  0.73836607  0.87982664     0.87100
C1323       C  0.18216321  0.75825018  0.87896012     1.08700
H1324       H  0.05711171  0.66257465  0.88652577     0.40500
O1325       O  0.07308008  0.65344640  0.88526943    -1.07700
O1326       O  0.08922640  0.61196645  0.87140666    -0.64400
Ni1327     Ni  0.07101641  0.64499937  0.87056241     1.26300
O1328       O  0.10168041  0.72421574  0.88659581    -0.64600
O1329       O  0.02271525  0.60477769  0.87099116    -0.76900
C1330       C  0.07860707  0.66812310  0.84975925     0.86500
O1331       O  0.07217835  0.64131490  0.85545242    -0.64100
Ni1332     Ni  0.05857853  0.61588464  0.89505770     1.27400
Ni1333     Ni  0.12086428  0.69245937  0.88566838     1.26100
H1334       H  0.13532809  0.67896336  0.86877540     0.41100
O1335       O  0.06136462  0.69790552  0.76438252    -0.78900
O1336       O  0.08841364  0.69509028  0.81191142    -0.63600
O1337       O  0.08999147  0.68146559  0.78221237    -1.10200
C1338       C  0.48348193  0.57930703  0.78720051     1.08000
O1339       O  0.07501175  0.63915865  0.81389081    -0.76800
O1340       O  0.06563181  0.59764184  0.79778323    -0.64400
Ni1341     Ni  0.10610002  0.71892262  0.77227519     1.34900
C1342       C  0.07080071  0.59637514  0.78807480     0.86700
O1343       O  0.13947569  0.73071947  0.79671459    -0.77300
O1344       O  0.15167820  0.74260239  0.77941508    -0.87600
C1345       C  0.08152915  0.66856395  0.81779842     0.86300
O1346       O  0.09254146  0.74865268  0.77953704    -0.65800
O1347       O  0.49733832  0.57911762  0.79599784    -0.85100
C1348       C  0.07927189  0.74779927  0.78846681     0.87100
C1349       C  0.16083909  0.74738682  0.78910954     1.08700
H1350       H  0.02645600  0.65691530  0.79830875     0.40500
O1351       O  0.04363029  0.64977691  0.79643399    -1.07700
O1352       O  0.06016844  0.61001746  0.78113564    -0.64400
Ni1353     Ni  0.04186726  0.64275310  0.78164458     1.26300
O1354       O  0.07301437  0.72394965  0.79540698    -0.64600
O1355       O  0.49728423  0.60507217  0.78069596    -0.76900
C1356       C  0.04091206  0.66540217  0.76175080     0.86500
O1357       O  0.04072598  0.64020239  0.76680318    -0.64100
Ni1358     Ni  0.03527698  0.61022431  0.80507297     1.27400
Ni1359     Ni  0.09091598  0.69070888  0.79686959     1.26100
H1360       H  0.10570645  0.67187060  0.78125435     0.41100
O1361       O  0.29652521  0.90225206  0.85186344    -0.78900
O1362       O  0.30236644  0.93136510  0.90057481    -0.63600
O1363       O  0.31075322  0.93871862  0.87090271    -1.10200
C1364       C  0.40627082  0.91498680  0.87791368     1.08000
O1365       O  0.36016591  0.96822056  0.90263499    -0.76800
O1366       O  0.41034182  0.98555644  0.88739564    -0.64400
Ni1367     Ni  0.26955458  0.90787529  0.86274267     1.34900
C1368       C  0.40946491  0.99814050  0.87849777     0.86700
O1369       O  0.26629892  0.94386547  0.88604173    -0.77300
O1370       O  0.23643980  0.91032217  0.87229027    -0.87600
C1371       C  0.32785923  0.95686978  0.90538026     0.86300
O1372       O  0.26355555  0.86562988  0.86914472    -0.65800
O1373       O  0.40194708  0.91948442  0.88764308    -0.85100
C1374       C  0.25906842  0.85833533  0.87883335     0.87100
C1375       C  0.23817524  0.92754123  0.88053919     1.08700
H1376       H  0.33142101  0.89674703  0.88600255     0.40500
O1377       O  0.34171091  0.92213268  0.88499220    -1.07700
O1378       O  0.38507856  0.98096290  0.87165971    -0.64400
Ni1379     Ni  0.35037674  0.93008384  0.87035097     1.26300
O1380       O  0.26981973  0.88223907  0.88593693    -0.64600
O1381       O  0.38936456  0.91985878  0.87040378    -0.76900
C1382       C  0.32874864  0.91994754  0.84899042     0.86500
O1383       O  0.35472724  0.93632092  0.85536464    -0.64100
Ni1384     Ni  0.37968385  0.94286555  0.89479736     1.27400
Ni1385     Ni  0.30435870  0.93325767  0.88575068     1.26100
H1386       H  0.31860951  0.96318976  0.86902277     0.41100
O1387       O  0.30660751  0.86417047  0.76426311    -0.78900
O1388       O  0.31025761  0.90064205  0.81130165    -0.63600
O1389       O  0.32314864  0.91169155  0.78153651    -1.10200
C1390       C  0.42716760  0.90658843  0.78791737     1.08000
O1391       O  0.36689921  0.94146841  0.81357834    -0.76800
O1392       O  0.40625101  0.97209770  0.79704798    -0.64400
Ni1393     Ni  0.28537437  0.88862007  0.77176217     1.34900
C1394       C  0.40729868  0.97790650  0.78730871     0.86700
O1395       O  0.27525123  0.91484268  0.79580092    -0.77300
O1396       O  0.26160748  0.91122468  0.77850906    -0.87600
C1397       C  0.33656244  0.92001823  0.81726565     0.86300
O1398       O  0.25598091  0.84632255  0.77952502    -0.65800
O1399       O  0.42756571  0.92199434  0.79645366    -0.85100
C1400       C  0.25665485  0.83565450  0.78873876     0.87100
C1401       C  0.25786344  0.91779770  0.78810084     1.08700
H1402       H  0.34737212  0.87410311  0.79821074     0.40500
O1403       O  0.35486715  0.89831116  0.79611390    -1.07700
O1404       O  0.39438076  0.95324064  0.78046786    -0.64400
Ni1405     Ni  0.36167821  0.90216396  0.78126787     1.26300
O1406       O  0.28057074  0.85443143  0.79552211    -0.64600
O1407       O  0.40103130  0.89350439  0.78154641    -0.76900
C1408       C  0.33913754  0.87644502  0.76156931     0.86500
O1409       O  0.36415253  0.90229243  0.76642265    -0.64100
Ni1410     Ni  0.39485561  0.92998970  0.80457370     1.27400
Ni1411     Ni  0.31454012  0.90554455  0.79625782     1.26100
H1412       H  0.33262943  0.93681546  0.78021156     0.41100
O1413       O  0.10388452  0.90421782  0.85373146    -0.78900
O1414       O  0.06172216  0.87340097  0.90078259    -0.63600
O1415       O  0.05850932  0.87508926  0.87098682    -1.10200
C1416       C  0.07728818  0.99196228  0.87757416     1.08000
O1417       O  0.02212424  0.89112443  0.90212613    -0.76800
O1418       O  0.00439556  0.92107662  0.88612666    -0.64400
Ni1419     Ni  0.08920999  0.86437426  0.86288280     1.34900
C1420       C  0.99500348  0.90995313  0.87683788     0.86700
O1421       O  0.05342415  0.82604419  0.88644441    -0.77300
O1422       O  0.07791663  0.82326176  0.87120319    -0.87600
C1423       C  0.03502612  0.87187689  0.90527329     0.86300
O1424       O  0.13172678  0.89262150  0.87061901    -0.65800
O1425       O  0.06841938  0.98172702  0.88710289    -0.85100
C1426       C  0.13754448  0.90018938  0.88026346     0.87100
C1427       C  0.06419310  0.81077181  0.88011931     1.08700
H1428       H  0.09584537  0.93747252  0.88655696     0.40500
O1429       O  0.07092479  0.92153293  0.88502656    -1.07700
O1430       O  0.01514621  0.90612981  0.87022744    -0.64400
Ni1431     Ni  0.06638032  0.92282538  0.87015704     1.26300
O1432       O  0.11293214  0.89249076  0.88694494    -0.64600
O1433       O  0.07620227  0.97162033  0.87009899    -0.76900
C1434       C  0.08384783  0.91395477  0.84946596     0.86500
O1435       O  0.06372858  0.92133981  0.85496503    -0.64100
Ni1436     Ni  0.04627478  0.93609522  0.89424932     1.27400
Ni1437     Ni  0.06186496  0.87384791  0.88593165     1.26100
H1438       H  0.03419899  0.85846697  0.86896594     0.41100
O1439       O  0.13952291  0.94409068  0.76345548    -0.78900
O1440       O  0.10359083  0.91304289  0.81107980    -0.63600
O1441       O  0.09345385  0.91499085  0.78117704    -1.10200
C1442       C  0.09727113  0.52216548  0.78737839     1.08000
O1443       O  0.07751398  0.94510007  0.81505642    -0.76800
O1444       O  0.03768376  0.93411280  0.79758747    -0.64400
Ni1445     Ni  0.11580550  0.89933968  0.77140337     1.34900
C1446       C  0.02962357  0.93154535  0.78793885     0.86700
O1447       O  0.08826605  0.86383062  0.79564722    -0.77300
O1448       O  0.09411381  0.85367102  0.77851562    -0.87600
C1449       C  0.09025736  0.92553629  0.81764015     0.86300
O1450       O  0.15873229  0.91385559  0.77892053    -0.65800
O1451       O  0.08143835  0.50699811  0.79586697    -0.85100
C1452       C  0.16939850  0.92460420  0.78816682     0.87100
C1453       C  0.08635004  0.84342700  0.78807711     1.08700
H1454       H  0.13446125  0.97829183  0.79738649     0.40500
O1455       O  0.10991969  0.96213273  0.79547123    -1.07700
O1456       O  0.05309455  0.94614773  0.78072784    -0.64400
Ni1457     Ni  0.10440667  0.96322129  0.78060603     1.26300
O1458       O  0.15037282  0.92835103  0.79518913    -0.64600
O1459       O  0.11126966  0.50955012  0.78115116    -0.76900
C1460       C  0.12711127  0.96417283  0.76076193     0.86500
O1461       O  0.10174611  0.96366448  0.76578046    -0.64100
Ni1462     Ni  0.07921822  0.97334212  0.80340552     1.27400
Ni1463     Ni  0.09966603  0.91321848  0.79593413     1.26100
H1464       H  0.06826185  0.89977739  0.77986965     0.41100
O1465       O  0.27182994  0.73694250  0.51996732    -0.78900
O1466       O  0.23425886  0.70648057  0.56708325    -0.63600
O1467       O  0.22825213  0.70650408  0.53735092    -1.10200
C1468       C  0.24680836  0.82336799  0.54366815     1.08000
O1469       O  0.19506123  0.72472450  0.56873426    -0.76800
O1470       O  0.17587313  0.75483311  0.55307902    -0.64400
Ni1471     Ni  0.25972456  0.69751724  0.52903765     1.34900
C1472       C  0.16448464  0.74197165  0.54404406     0.86700
O1473       O  0.22595147  0.65860721  0.55270764    -0.77300
O1474       O  0.25082008  0.65710546  0.53736985    -0.87600
C1475       C  0.20810870  0.70550356  0.57177759     0.86300
O1476       O  0.30248810  0.72746483  0.53646398    -0.65800
O1477       O  0.24063104  0.81436918  0.55336368    -0.85100
C1478       C  0.30874272  0.73453774  0.54611425     0.87100
C1479       C  0.23736638  0.64408722  0.54627699     1.08700
H1480       H  0.26665016  0.76983871  0.55231027     0.40500
O1481       O  0.24151105  0.75361233  0.55118914    -1.07700
O1482       O  0.18298561  0.73603771  0.53731854    -0.64400
Ni1483     Ni  0.23444141  0.75358379  0.53642915     1.26300
O1484       O  0.28440061  0.72559161  0.55295556    -0.64600
O1485       O  0.24325450  0.80201359  0.53619440    -0.76900
C1486       C  0.24960585  0.74374944  0.51572580     0.86500
O1487       O  0.22921152  0.75048187  0.52131038    -0.64100
Ni1488     Ni  0.21869335  0.76923578  0.56070898     1.27400
Ni1489     Ni  0.23321025  0.70613915  0.55223168     1.26100
H1490       H  0.20399560  0.68913943  0.53549292     0.41100
O1491       O  0.30372868  0.76973733  0.43000946    -0.78900
O1492       O  0.26664143  0.73883110  0.47741964    -0.63600
O1493       O  0.25699675  0.74035238  0.44752982    -1.10200
C1494       C  0.25955897  0.84751808  0.45167143     1.08000
O1495       O  0.23901234  0.76955034  0.48119731    -0.76800
O1496       O  0.19986924  0.75901263  0.46362548    -0.64400
Ni1497     Ni  0.27984472  0.72487635  0.43788909     1.34900
C1498       C  0.19220898  0.75627383  0.45394221     0.86700
O1499       O  0.25198095  0.68950480  0.46209521    -0.77300
O1500       O  0.25801368  0.67919339  0.44499022    -0.87600
C1501       C  0.25257948  0.75081691  0.48388176     0.86300
O1502       O  0.32252950  0.73924702  0.44554353    -0.65800
O1503       O  0.24033571  0.83056224  0.45945379    -0.85100
C1504       C  0.33297750  0.75011142  0.45479685     0.87100
C1505       C  0.25024768  0.66906695  0.45456091     1.08700
H1506       H  0.29691103  0.80385385  0.46371970     0.40500
O1507       O  0.27247806  0.78745510  0.46175720    -1.07700
O1508       O  0.21594255  0.77081210  0.44680181    -0.64400
Ni1509     Ni  0.26733877  0.78844354  0.44687137     1.26300
O1510       O  0.31380919  0.75422042  0.46169813    -0.64600
O1511       O  0.27771226  0.83695856  0.44660058    -0.76900
C1512       C  0.29125250  0.78967301  0.42720685     0.86500
O1513       O  0.26532731  0.78872137  0.43203048    -0.64100
Ni1514     Ni  0.24116530  0.79811514  0.46959306     1.27400
Ni1515     Ni  0.26291956  0.73874894  0.46229421     1.26100
H1516       H  0.23185157  0.72489704  0.44618436     0.41100
O1517       O  0.25865735  0.52833595  0.51953984    -0.78900
O1518       O  0.29507576  0.52692411  0.56647888    -0.63600
O1519       O  0.29103763  0.51774138  0.53680672    -1.10200
C1520       C  0.17267807  0.91858037  0.54381486     1.08000
O1521       O  0.27322526  0.96562483  0.56811169    -0.76800
O1522       O  0.24109125  0.91630734  0.55267231    -0.64400
Ni1523     Ni  0.29893138  0.55720246  0.52818046     1.34900
C1524       C  0.25426075  0.91817280  0.54366563     0.86700
O1525       O  0.34123001  0.56516726  0.55142181    -0.77300
O1526       O  0.34021931  0.59012086  0.53603961    -0.87600
C1527       C  0.29530281  0.50165229  0.57138321     0.86300
O1528       O  0.26929738  0.57011447  0.53575712    -0.65800
O1529       O  0.18214615  0.92249527  0.55348231    -0.85100
C1530       C  0.26388742  0.57063578  0.54548963     0.87100
C1531       C  0.35466534  0.59071529  0.54479230     1.08700
H1532       H  0.22782753  0.99326572  0.55199660     0.40500
O1533       O  0.24341176  0.98366060  0.55077812    -1.07700
O1534       O  0.26030034  0.94256083  0.53698800    -0.64400
Ni1535     Ni  0.24221183  0.97553131  0.53603476     1.26300
O1536       O  0.27441581  0.55665944  0.55233292    -0.64600
O1537       O  0.19375455  0.93568661  0.53620926    -0.76900
C1538       C  0.25181812  0.99758396  0.51480404     0.86500
O1539       O  0.24397478  0.97151286  0.52099326    -0.64100
Ni1540     Ni  0.22801045  0.94543020  0.56044274     1.27400
Ni1541     Ni  0.29341182  0.52469434  0.55162288     1.26100
H1542       H  0.30813041  0.51060698  0.53483508     0.41100
O1543       O  0.22230839  0.52326159  0.43041148    -0.78900
O1544       O  0.25638396  0.52151410  0.47759552    -0.63600
O1545       O  0.25307738  0.50728388  0.44782479    -1.10200
C1546       C  0.14672270  0.90626046  0.45374313     1.08000
O1547       O  0.24417645  0.96580776  0.47857421    -0.76800
O1548       O  0.23030545  0.92302916  0.46235943    -0.64400
Ni1549     Ni  0.26793055  0.54466392  0.43787795     1.34900
C1550       C  0.23554034  0.92301296  0.45260062     0.86700
O1551       O  0.30507068  0.55580092  0.46186263    -0.77300
O1552       O  0.31444808  0.56886520  0.44453825    -0.87600
C1553       C  0.24962968  0.49536184  0.48362800     0.86300
O1554       O  0.25472542  0.57406762  0.44546324    -0.65800
O1555       O  0.16059399  0.90610266  0.46254438    -0.85100
C1556       C  0.24352791  0.57379382  0.45466645     0.87100
C1557       C  0.32518224  0.57299160  0.45408887     1.08700
H1558       H  0.19406300  0.98487637  0.46392194     0.40500
O1559       O  0.21100268  0.97767750  0.46182815    -1.07700
O1560       O  0.22650321  0.93891122  0.44596827    -0.64400
Ni1561     Ni  0.20830558  0.97152487  0.44700662     1.26300
O1562       O  0.23922156  0.55067046  0.46163956    -0.64600
O1563       O  0.16058002  0.93187957  0.44719477    -0.76900
C1564       C  0.20509665  0.99451857  0.42743735     0.86500
O1565       O  0.20622060  0.96953840  0.43218868    -0.64100
Ni1566     Ni  0.20274610  0.93776725  0.47026202     1.27400
Ni1567     Ni  0.25623295  0.51661592  0.46252032     1.26100
H1568       H  0.26848139  0.49751792  0.44652339     0.41100
O1569       O  0.46518286  0.73778829  0.51680252    -0.78900
O1570       O  0.47207632  0.76522373  0.56580960    -0.63600
O1571       O  0.48137975  0.77200713  0.53612543    -1.10200
C1572       C  0.07539667  0.74856068  0.54428205     1.08000
O1573       O  0.02809815  0.80196117  0.56889130    -0.76800
O1574       O  0.07746944  0.82072925  0.55333793    -0.64400
Ni1575     Ni  0.43911559  0.74139871  0.52825734     1.34900
C1576       C  0.07695936  0.83106796  0.54407420     0.86700
O1577       O  0.43773799  0.77899795  0.55113400    -0.77300
O1578       O  0.40622993  0.74211722  0.53825521    -0.87600
C1579       C  0.49718817  0.79060422  0.57074599     0.86300
O1580       O  0.43498668  0.69935831  0.53435481    -0.65800
O1581       O  0.07302908  0.75623231  0.55386818    -0.85100
C1582       C  0.43023059  0.69197025  0.54405870     0.87100
C1583       C  0.40892378  0.76137587  0.54607124     1.08700
H1584       H  0.00073138  0.73014092  0.55273325     0.40500
O1585       O  0.01050885  0.75529609  0.55140055    -1.07700
O1586       O  0.05349055  0.81199109  0.53722635    -0.64400
Ni1587     Ni  0.01802360  0.76128567  0.53666671     1.26300
O1588       O  0.44013156  0.71600604  0.55113376    -0.64600
O1589       O  0.05638379  0.75018841  0.53680338    -0.76900
C1590       C  0.99581664  0.75159737  0.51513690     0.86500
O1591       O  0.02175456  0.76514200  0.52161721    -0.64100
Ni1592     Ni  0.04906839  0.77805071  0.56099839     1.27400
Ni1593     Ni  0.47491306  0.76722194  0.55099674     1.26100
H1594       H  0.49005178  0.79653701  0.53411833     0.41100
O1595       O  0.46882098  0.69250002  0.42920021    -0.78900
O1596       O  0.47649628  0.72544112  0.47668478    -0.63600
O1597       O  0.48679109  0.73848566  0.44686881    -1.10200
C1598       C  0.09229763  0.73287176  0.45379201     1.08000
O1599       O  0.03404201  0.76841063  0.47988090    -0.76800
O1600       O  0.07404719  0.79914429  0.46353886    -0.64400
Ni1601     Ni  0.44828153  0.71635026  0.43727941     1.34900
C1602       C  0.07452592  0.80574027  0.45387143     0.86700
O1603       O  0.43963668  0.74015166  0.46181128    -0.77300
O1604       O  0.42494505  0.73821131  0.44465920    -0.87600
C1605       C  0.50334645  0.74514752  0.48245814     0.86300
O1606       O  0.41960710  0.67335867  0.44478939    -0.65800
O1607       O  0.09288784  0.74730897  0.46252940    -0.85100
C1608       C  0.42100729  0.66170549  0.45379184     0.87100
C1609       C  0.42165193  0.74371567  0.45438215     1.08700
H1610       H  0.01274431  0.70155212  0.46406788     0.40500
O1611       O  0.02077219  0.72605437  0.46217717    -1.07700
O1612       O  0.06076781  0.78173674  0.44687142    -0.64400
Ni1613     Ni  0.02754452  0.73091124  0.44734335     1.26300
O1614       O  0.44529043  0.67990644  0.46057041    -0.64600
O1615       O  0.06642365  0.72138999  0.44733801    -0.76900
C1616       C  0.00485795  0.70737568  0.42749032     0.86500
O1617       O  0.03014482  0.73238706  0.43250409    -0.64100
Ni1618     Ni  0.06105730  0.75615531  0.47076699     1.27400
Ni1619     Ni  0.47925584  0.73111640  0.46160828     1.26100
H1620       H  0.49625568  0.76372500  0.44578021     0.41100
O1621       O  0.05728511  0.63139550  0.31199312    -0.78900
O1622       O  0.09478007  0.63837984  0.26524285    -0.63600
O1623       O  0.10154344  0.64562614  0.29491913    -1.10200
C1624       C  0.08183417  0.74346670  0.28818145     1.08000
O1625       O  0.13443852  0.69570805  0.26359700    -0.76800
O1626       O  0.15320193  0.74526836  0.27911702    -0.64400
Ni1627     Ni  0.07256853  0.60522855  0.30356905     1.34900
C1628       C  0.16391031  0.74416113  0.28828342     0.86700
O1629       O  0.10298561  0.59887957  0.27965849    -0.77300
O1630       O  0.08482421  0.57516480  0.29574001    -0.87600
C1631       C  0.12145797  0.66334357  0.26064517     0.86300
O1632       O  0.02911413  0.58773719  0.29608546    -0.65800
O1633       O  0.08874528  0.74063755  0.27854790    -0.85100
C1634       C  0.02161509  0.59027433  0.28665259     0.87100
C1635       C  0.09519990  0.57443340  0.28645206     1.08700
H1636       H  0.06258547  0.66979442  0.27974496     0.40500
O1637       O  0.08767658  0.67871725  0.28097303    -1.07700
O1638       O  0.14508253  0.72017323  0.29505573    -0.64400
Ni1639     Ni  0.09396903  0.68585274  0.29572919     1.26300
O1640       O  0.04487395  0.60809075  0.27971822    -0.64600
O1641       O  0.08444427  0.72522878  0.29573789    -0.76900
C1642       C  0.07846065  0.66052594  0.31637619     0.86500
O1643       O  0.09842477  0.68808524  0.31088163    -0.64100
Ni1644     Ni  0.11067736  0.71695604  0.27139765     1.27400
Ni1645     Ni  0.09605051  0.63949732  0.28008833     1.26100
H1646       H  0.12616625  0.65355277  0.29660882     0.41100
O1647       O  0.02817551  0.63495563  0.40190252    -0.78900
O1648       O  0.06052577  0.63601426  0.35455147    -0.63600
O1649       O  0.07427643  0.64982352  0.38430897    -1.10200
C1650       C  0.07093031  0.75478303  0.37842074     1.08000
O1651       O  0.10045182  0.69284781  0.35176094    -0.76800
O1652       O  0.13398206  0.73179332  0.36825671    -0.64400
Ni1653     Ni  0.05114026  0.61251510  0.39425418     1.34900
C1654       C  0.14076254  0.73388929  0.37795960     0.86700
O1655       O  0.07506501  0.60054512  0.37004168    -0.77300
O1656       O  0.07204069  0.58734362  0.38736804    -0.87600
C1657       C  0.07899377  0.66202690  0.34835642     0.86300
O1658       O  0.00806501  0.58370630  0.38679350    -0.65800
O1659       O  0.08548812  0.75482632  0.36975160    -0.85100
C1660       C  0.99704521  0.58411130  0.37761363     0.87100
C1661       C  0.07777544  0.58290301  0.37775151     1.08700
H1662       H  0.03578039  0.67425553  0.36802798     0.40500
O1663       O  0.06012688  0.68153180  0.36989338    -1.07700
O1664       O  0.11674059  0.72136439  0.38500687    -0.64400
Ni1665     Ni  0.06553101  0.68882962  0.38472095     1.26300
O1666       O  0.01561112  0.60753420  0.37070004    -0.64600
O1667       O  0.05732210  0.72839613  0.38467488    -0.76900
C1668       C  0.04139232  0.66764500  0.40452241     0.86500
O1669       O  0.06740698  0.69198888  0.39955277    -0.64100
Ni1670     Ni  0.09117872  0.72130448  0.36125751     1.27400
Ni1671     Ni  0.06672836  0.64071279  0.36961835     1.26100
H1672       H  0.09944220  0.65897574  0.38546938     0.41100
O1673       O  0.05157714  0.92344520  0.31450080    -0.78900
O1674       O  0.03651541  0.90069715  0.26521700    -0.63600
O1675       O  0.03482289  0.89102993  0.29487703    -1.10200
C1676       C  0.15404862  0.91357726  0.28858912     1.08000
O1677       O  0.05554729  0.86231622  0.26319142    -0.76800
O1678       O  0.08468907  0.84209250  0.27883828    -0.64400
Ni1679     Ni  0.02337287  0.92155547  0.30284464     1.34900
C1680       C  0.07320237  0.83109644  0.28801639     0.86700
O1681       O  0.48463488  0.88553124  0.27991416    -0.77300
O1682       O  0.48830677  0.91987069  0.29335479    -0.87600
C1683       C  0.03568775  0.87489339  0.26036905     0.86300
O1684       O  0.06244402  0.96358357  0.29718847    -0.65800
O1685       O  0.14483270  0.90656384  0.27892205    -0.85100
C1686       C  0.06645804  0.97185804  0.28754251     0.87100
C1687       C  0.47292843  0.90232036  0.28517357     1.08700
H1688       H  0.09889296  0.93281144  0.27986753     0.40500
O1689       O  0.08328860  0.90758091  0.28101735    -1.07700
O1690       O  0.06815900  0.84968847  0.29489297    -0.64400
Ni1691     Ni  0.08348027  0.90045659  0.29573754     1.26300
O1692       O  0.05286176  0.94869236  0.28023527    -0.64600
O1693       O  0.13280866  0.91137568  0.29594389    -0.76900
C1694       C  0.06980236  0.90934377  0.31719326     0.86500
O1695       O  0.08186177  0.89535680  0.31076212    -0.64100
Ni1696     Ni  0.09973410  0.88542801  0.27143095     1.27400
Ni1697     Ni  0.03520491  0.89740882  0.28001969     1.26100
H1698       H  0.01824932  0.86642252  0.29662473     0.41100
O1699       O  0.10656193  0.96572636  0.40232894    -0.78900
O1700       O  0.07648436  0.93038312  0.35500527    -0.63600
O1701       O  0.07808865  0.91918152  0.38473747    -1.10200
C1702       C  0.18741241  0.92613828  0.37975205     1.08000
O1703       O  0.10218326  0.89786797  0.35139803    -0.76800
O1704       O  0.10022602  0.86257783  0.36876996    -0.64400
Ni1705     Ni  0.06171100  0.94099962  0.39448688     1.34900
C1706       C  0.09739696  0.85569538  0.37848641     0.86700
O1707       O  0.02702656  0.91466735  0.37025179    -0.77300
O1708       O  0.01592261  0.91844179  0.38741962    -0.87600
C1709       C  0.08590237  0.91392562  0.34862573     0.86300
O1710       O  0.07508602  0.98372224  0.38695467    -0.65800
O1711       O  0.17184660  0.90857300  0.37156831    -0.85100
C1712       C  0.08672619  0.99489843  0.37780401     0.87100
C1713       C  0.00620232  0.91180939  0.37778945     1.08700
H1714       H  0.14085338  0.95987711  0.36835182     0.40500
O1715       O  0.12475174  0.93539471  0.37034414    -1.07700
O1716       O  0.11060444  0.87984353  0.38552119    -0.64400
Ni1717     Ni  0.12668223  0.93076404  0.38521940     1.26300
O1718       O  0.09169184  0.97641696  0.37087895    -0.64600
O1719       O  0.17544915  0.94214601  0.38529001    -0.76900
C1720       C  0.12770058  0.95450944  0.40494730     0.86500
O1721       O  0.12780794  0.92924780  0.40004563    -0.64100
Ni1722     Ni  0.13553095  0.90485895  0.36216880     1.27400
Ni1723     Ni  0.07621085  0.92568499  0.37001781     1.26100
H1724       H  0.06318590  0.89390896  0.38599487     0.41100
O1725       O  0.36320619  0.92693601  0.31294664    -0.78900
O1726       O  0.35492468  0.96101274  0.26578293    -0.63600
O1727       O  0.34890611  0.95710590  0.29554261    -1.10200
C1728       C  0.25120375  0.84013034  0.28839560     1.08000
O1729       O  0.29721722  0.94112161  0.26401443    -0.76800
O1730       O  0.24847225  0.90938652  0.27972985    -0.64400
Ni1731     Ni  0.39003536  0.96541088  0.30344506     1.34900
C1732       C  0.24978261  0.92116259  0.28891100     0.86700
O1733       O  0.39209695  0.50434292  0.28068661    -0.77300
O1734       O  0.42095378  0.50109453  0.29490033    -0.87600
C1735       C  0.32945341  0.96126156  0.26105934     0.86300
O1736       O  0.39994213  0.93389878  0.29569756    -0.65800
O1737       O  0.25400474  0.85006033  0.27878416    -0.85100
C1738       C  0.40062535  0.92991298  0.28588940     0.87100
C1739       C  0.41939763  0.51650792  0.28658039     1.08700
H1740       H  0.32515787  0.89578203  0.27986223     0.40500
O1741       O  0.31563765  0.91133925  0.28125789    -1.07700
O1742       O  0.27417040  0.92653348  0.29558922    -0.64400
Ni1743     Ni  0.30853862  0.90957156  0.29606888     1.26300
O1744       O  0.38690553  0.94167824  0.27933634    -0.64600
O1745       O  0.26922878  0.86085663  0.29596320    -0.76900
C1746       C  0.33310779  0.91774750  0.31692134     0.86500
O1747       O  0.30618523  0.91086327  0.31120483    -0.64100
Ni1748     Ni  0.27697583  0.89597453  0.27177932     1.27400
Ni1749     Ni  0.35388683  0.95942740  0.28061922     1.26100
H1750       H  0.34181311  0.97399117  0.29778855     0.41100
O1751       O  0.36219321  0.88752653  0.40190315    -0.78900
O1752       O  0.35758816  0.91938391  0.35473003    -0.63600
O1753       O  0.34514445  0.91784521  0.38457172    -1.10200
C1754       C  0.24118874  0.80863573  0.37830252     1.08000
O1755       O  0.30116495  0.90478458  0.35286689    -0.76800
O1756       O  0.26099094  0.89445941  0.36942610    -0.64400
Ni1757     Ni  0.38282043  0.93311637  0.39438295     1.34900
C1758       C  0.26021754  0.89900649  0.37919446     0.86700
O1759       O  0.39310116  0.96885549  0.37025530    -0.77300
O1760       O  0.40600184  0.97938131  0.38757890    -0.87600
C1761       C  0.33102309  0.91298902  0.34891646     0.86300
O1762       O  0.41252527  0.92058352  0.38669459    -0.65800
O1763       O  0.24080608  0.82345051  0.36971155    -0.85100
C1764       C  0.41181313  0.90857518  0.37758260     0.87100
C1765       C  0.40996755  0.98950025  0.37796283     1.08700
H1766       H  0.32060790  0.85589637  0.36793009     0.40500
O1767       O  0.31326653  0.87269487  0.37006548    -1.07700
O1768       O  0.27395520  0.88777065  0.38590724    -0.64400
Ni1769     Ni  0.30674202  0.86971074  0.38491739     1.26300
O1770       O  0.38785399  0.90300436  0.37072861    -0.64600
O1771       O  0.26732723  0.82173740  0.38467937    -0.76900
C1772       C  0.32973438  0.86682346  0.40456189     0.86500
O1773       O  0.30453910  0.86740141  0.39975190    -0.64100
Ni1774     Ni  0.27319886  0.86465091  0.36169261     1.27400
Ni1775     Ni  0.35375749  0.92018855  0.36984578     1.26100
H1776       H  0.33549562  0.93337027  0.38583002     0.41100
O1777       O  0.42339114  0.86326836  0.18528172    -0.78900
O1778       O  0.45855119  0.86186361  0.23245419    -0.63600
O1779       O  0.45406688  0.85126073  0.20281838    -1.10200
C1780       C  0.33655741  0.75514038  0.21070839     1.08000
O1781       O  0.43780104  0.80424220  0.23497476    -0.76800
O1782       O  0.40561269  0.75335406  0.21988363    -0.64400
Ni1783     Ni  0.46335713  0.89112632  0.19413916     1.34900
C1784       C  0.41698218  0.75319955  0.21074054     0.86700
O1785       O  0.00224226  0.89727821  0.21830068    -0.77300
O1786       O  0.00295149  0.92178557  0.20266109    -0.87600
C1787       C  0.45847818  0.83678387  0.23752991     0.86300
O1788       O  0.43376783  0.90443674  0.20147706    -0.65800
O1789       O  0.34658069  0.75939925  0.22033342    -0.85100
C1790       C  0.42864368  0.90565919  0.21118376     0.87100
C1791       C  0.01664137  0.92229892  0.21155668     1.08700
H1792       H  0.39297710  0.83050271  0.21843395     0.40500
O1793       O  0.40832643  0.82057464  0.21729764    -1.07700
O1794       O  0.42254522  0.77669879  0.20374551    -0.64400
Ni1795     Ni  0.40616865  0.81126317  0.20261693     1.26300
O1796       O  0.43915039  0.89195069  0.21812924    -0.64600
O1797       O  0.35722116  0.77223119  0.20301803    -0.76900
C1798       C  0.41453050  0.83296345  0.18157493     0.86500
O1799       O  0.40724368  0.80658517  0.18756745    -0.64100
Ni1800     Ni  0.39262287  0.78323057  0.22726710     1.27400
Ni1801     Ni  0.45669878  0.85867944  0.21762735     1.26100
H1802       H  0.47058442  0.84334713  0.20088145     0.41100
O1803       O  0.39721854  0.86024641  0.09640928    -0.78900
O1804       O  0.42354259  0.85703873  0.14377482    -0.63600
O1805       O  0.42617673  0.84397208  0.11413895    -1.10200
C1806       C  0.31489505  0.74038711  0.11977607     1.08000
O1807       O  0.40826971  0.80062710  0.14580904    -0.76800
O1808       O  0.39709684  0.75751322  0.12998589    -0.64400
Ni1809     Ni  0.44213591  0.88146532  0.10424745     1.34900
C1810       C  0.40507329  0.75788802  0.12042505     0.86700
O1811       O  0.47528039  0.89236580  0.12871416    -0.77300
O1812       O  0.48765069  0.90499817  0.11142411    -0.87600
C1813       C  0.41556440  0.83030497  0.14967748     0.86300
O1814       O  0.42877362  0.91135845  0.11155172    -0.65800
O1815       O  0.32724717  0.74084289  0.12887380    -0.85100
C1816       C  0.41572476  0.91047788  0.12052436     0.87100
C1817       C  0.49669144  0.90933675  0.12113614     1.08700
H1818       H  0.36195238  0.82012409  0.12971459     0.40500
O1819       O  0.37884953  0.81237429  0.12811650    -1.07700
O1820       O  0.39699321  0.77304316  0.11328497    -0.64400
Ni1821     Ni  0.37826526  0.80525993  0.11334866     1.26300
O1822       O  0.40927345  0.88641746  0.12737877    -0.64600
O1823       O  0.33036143  0.76539774  0.11307702    -0.76900
C1824       C  0.37727673  0.82770642  0.09370391     0.86500
O1825       O  0.37854043  0.80289477  0.09853364    -0.64100
Ni1826     Ni  0.36830053  0.77269542  0.13698754     1.27400
Ni1827     Ni  0.42650170  0.85277130  0.12876800     1.26100
H1828       H  0.44208632  0.83459086  0.11320515     0.41100
O1829       O  0.12756501  0.57117646  0.18427189    -0.78900
O1830       O  0.13438081  0.59852391  0.23330753    -0.63600
O1831       O  0.14225643  0.60582473  0.20360256    -1.10200
C1832       C  0.23822082  0.58297500  0.21046727     1.08000
O1833       O  0.19204643  0.63625732  0.23531478    -0.76800
O1834       O  0.24173456  0.65474321  0.21986591    -0.64400
Ni1835     Ni  0.10072400  0.57409587  0.19567201     1.34900
C1836       C  0.24080514  0.66633582  0.21081027     0.86700
O1837       O  0.09781418  0.61038017  0.21878118    -0.77300
O1838       O  0.06729709  0.57389105  0.20565358    -0.87600
C1839       C  0.15967445  0.62426438  0.23810784     0.86300
O1840       O  0.09822590  0.53291088  0.20181038    -0.65800
O1841       O  0.23535441  0.58929162  0.22015139    -0.85100
C1842       C  0.09327254  0.52529892  0.21148340     0.87100
C1843       C  0.06925119  0.59241265  0.21360029     1.08700
H1844       H  0.16425324  0.56486977  0.21885882     0.40500
O1845       O  0.17404848  0.59012033  0.21770941    -1.07700
O1846       O  0.21673943  0.64816970  0.20398026    -0.64400
Ni1847     Ni  0.18189077  0.59718765  0.20301934     1.26300
O1848       O  0.10247286  0.54904147  0.21860946    -0.64600
O1849       O  0.22048978  0.58670891  0.20301083    -0.76900
C1850       C  0.16001976  0.58660588  0.18159387     0.86500
O1851       O  0.18588773  0.60226445  0.18802568    -0.64100
Ni1852     Ni  0.21237737  0.61188391  0.22737611     1.27400
Ni1853     Ni  0.13623538  0.60042073  0.21847334     1.26100
H1854       H  0.14987423  0.63020242  0.20166548     0.41100
O1855       O  0.13920750  0.52908833  0.09668362    -0.78900
O1856       O  0.14647753  0.56476640  0.14390065    -0.63600
O1857       O  0.15804643  0.57587349  0.11418281    -1.10200
C1858       C  0.26152848  0.57072360  0.11859381     1.08000
O1859       O  0.20485348  0.59699661  0.14742138    -0.76800
O1860       O  0.23597838  0.63321564  0.12978710    -0.64400
Ni1861     Ni  0.11955395  0.55424296  0.10455896     1.34900
C1862       C  0.24003843  0.64002231  0.12005657     0.86700
O1863       O  0.11210087  0.58043138  0.12884946    -0.77300
O1864       O  0.09711079  0.57749857  0.11170898    -0.87600
C1865       C  0.17252092  0.58115072  0.15023329     0.86300
O1866       O  0.08981954  0.51179196  0.11218311    -0.65800
O1867       O  0.26384398  0.58916085  0.12659832    -0.85100
C1868       C  0.08981562  0.99886895  0.12169779     0.87100
C1869       C  0.09429257  0.58396830  0.12138177     1.08700
H1870       H  0.18144574  0.53569063  0.13040882     0.40500
O1871       O  0.18942725  0.56007290  0.12838351    -1.07700
O1872       O  0.22971940  0.61574299  0.11307696    -0.64400
Ni1873     Ni  0.19529318  0.56467964  0.11349122     1.26300
O1874       O  0.11479376  0.51852356  0.12808063    -0.64600
O1875       O  0.23313448  0.55383499  0.11325455    -0.76900
C1876       C  0.17147701  0.54057797  0.09387094     0.86500
O1877       O  0.19704831  0.56602444  0.09866293    -0.64100
Ni1878     Ni  0.23114002  0.59151919  0.13630296     1.27400
Ni1879     Ni  0.15027626  0.56937805  0.12889672     1.26100
H1880       H  0.16823321  0.60113829  0.11295609     0.41100
O1881       O  0.43585683  0.57431865  0.18644431    -0.78900
O1882       O  0.39134073  0.53444340  0.23297526    -0.63600
O1883       O  0.39030266  0.54056580  0.20321240    -1.10200
C1884       C  0.40659980  0.65598306  0.21089620     1.08000
O1885       O  0.35287923  0.55356964  0.23481822    -0.76800
O1886       O  0.33549230  0.58558353  0.21932025    -0.64400
Ni1887     Ni  0.42344202  0.53366784  0.19505229     1.34900
C1888       C  0.32515980  0.57392424  0.21012592     0.86700
O1889       O  0.38859675  0.99217532  0.21808224    -0.77300
O1890       O  0.41781065  0.99475546  0.20320538    -0.87600
C1891       C  0.36511203  0.53342332  0.23766157     0.86300
O1892       O  0.46485836  0.56315316  0.20308162    -0.65800
O1893       O  0.39975946  0.64560433  0.22048655    -0.85100
C1894       C  0.46956656  0.56746527  0.21287718     0.87100
C1895       C  0.40230942  0.97964943  0.21174394     1.08700
H1896       H  0.42633749  0.60106284  0.21912190     0.40500
O1897       O  0.40133648  0.58509450  0.21770097    -1.07700
O1898       O  0.34439796  0.56909532  0.20340372    -0.64400
Ni1899     Ni  0.39596643  0.58748127  0.20288508     1.26300
O1900       O  0.44404951  0.55647188  0.21942980    -0.64600
O1901       O  0.40395354  0.63566416  0.20321903    -0.76900
C1902       C  0.41371944  0.58112673  0.18212919     0.86500
O1903       O  0.39242556  0.58669439  0.18768511    -0.64100
Ni1904     Ni  0.37736710  0.59926005  0.22729191     1.27400
Ni1905     Ni  0.39287653  0.53739402  0.21809689     1.26100
H1906       H  0.36646472  0.52335928  0.20094553     0.41100
O1907       O  0.47473630  0.60453833  0.09710092    -0.78900
O1908       O  0.43805138  0.57572070  0.14450211    -0.63600
O1909       O  0.42746326  0.57542658  0.11453039    -1.10200
C1910       C  0.43306228  0.68510438  0.12031374     1.08000
O1911       O  0.39524862  0.58891957  0.14567086    -0.76800
O1912       O  0.36645516  0.60117751  0.12916225    -0.64400
Ni1913     Ni  0.44999163  0.55963758  0.10494031     1.34900
C1914       C  0.36116052  0.59566981  0.11941479     0.86700
O1915       O  0.42452807  0.52551081  0.12925438    -0.77300
O1916       O  0.42698083  0.51397381  0.11201941    -0.87600
C1917       C  0.41715378  0.58190301  0.15003601     0.86300
O1918       O  0.49224084  0.57303066  0.11274913    -0.65800
O1919       O  0.41879152  0.67123590  0.12908019    -0.85100
C1920       C  0.50341488  0.58577306  0.12181234     0.87100
C1921       C  0.42069847  0.50446157  0.12167307     1.08700
H1922       H  0.46456758  0.63825161  0.13084345     0.40500
O1923       O  0.44043623  0.62129338  0.12874971    -1.07700
O1924       O  0.38612488  0.60517123  0.11276628    -0.64400
Ni1925     Ni  0.43697577  0.62342500  0.11386738     1.26300
O1926       O  0.48485572  0.59149264  0.12854390    -0.64600
O1927       O  0.44509374  0.67125340  0.11384409    -0.76900
C1928       C  0.46272797  0.62479359  0.09419029     0.86500
O1929       O  0.43726853  0.62489752  0.09899685    -0.64100
Ni1930     Ni  0.40859487  0.62968201  0.13703587     1.27400
Ni1931     Ni  0.43360210  0.57399686  0.12932632     1.26100
H1932       H  0.40229327  0.55976622  0.11327369     0.41100
O1933       O  0.27851969  0.80221218  0.06904775    -0.78900
O1934       O  0.24409662  0.76394855  0.02175513    -0.63600
O1935       O  0.24757392  0.75544465  0.05160564    -1.10200
C1936       C  0.35454649  0.75801682  0.04699069     1.08000
O1937       O  0.27648784  0.73831959  0.01766392    -0.76800
O1938       O  0.26582541  0.69853851  0.03503451    -0.64400
Ni1939     Ni  0.23320691  0.77900939  0.06134168     1.34900
C1940       C  0.26296216  0.69052966  0.04469023     0.86700
O1941       O  0.19589387  0.74957742  0.03733349    -0.77300
O1942       O  0.18715987  0.75790348  0.05440082    -0.87600
C1943       C  0.25649659  0.75061087  0.01518384     0.86300
O1944       O  0.24789787  0.82176548  0.05369905    -0.65800
O1945       O  0.33736198  0.73876054  0.03924802    -0.85100
C1946       C  0.25686476  0.83138283  0.04427985     0.87100
C1947       C  0.17622791  0.74908563  0.04491977     1.08700
H1948       H  0.31021619  0.79553964  0.03521491     0.40500
O1949       O  0.29407306  0.77101412  0.03715710    -1.07700
O1950       O  0.27769398  0.71403056  0.05189248    -0.64400
Ni1951     Ni  0.29555165  0.76555284  0.05200475     1.26300
O1952       O  0.25985614  0.81170239  0.03730688    -0.64600
O1953       O  0.34409861  0.77614169  0.05209800    -0.76900
C1954       C  0.29813347  0.78916627  0.07167380     0.86500
O1955       O  0.29623304  0.76294303  0.06679592    -0.64100
Ni1956     Ni  0.30497277  0.74006341  0.02918938     1.27400
Ni1957     Ni  0.24514320  0.76093348  0.03686437     1.26100
H1958       H  0.23209105  0.73038532  0.05305633     0.41100
O1959       O  0.22269800  0.75979641  0.98096363    -0.78900
O1960       O  0.20562265  0.73536985  0.93180253    -0.63600
O1961       O  0.20533380  0.72710341  0.96146976    -1.10200
C1962       C  0.32350333  0.74837805  0.95465065     1.08000
O1963       O  0.22360844  0.69618990  0.92985610    -0.76800
O1964       O  0.25389999  0.67677049  0.94529265    -0.64400
Ni1965     Ni  0.19550460  0.75917674  0.96920105     1.34900
C1966       C  0.24223827  0.66574802  0.95444788     0.86700
O1967       O  0.15697782  0.72293941  0.94625779    -0.77300
O1968       O  0.16440202  0.76151670  0.95882975    -0.87600
C1969       C  0.20394824  0.70900085  0.92706115     0.86300
O1970       O  0.23601638  0.79975256  0.96347857    -0.65800
O1971       O  0.31393064  0.74132064  0.94500749    -0.85100
C1972       C  0.23892816  0.80792032  0.95384226     0.87100
C1973       C  0.14676773  0.74148763  0.95124947     1.08700
H1974       H  0.26882071  0.76761904  0.94621937     0.40500
O1975       O  0.25299229  0.74246791  0.94743270    -1.07700
O1976       O  0.23741034  0.68450404  0.96134117    -0.64400
Ni1977     Ni  0.25358762  0.73561260  0.96216036     1.26300
O1978       O  0.22369758  0.78452543  0.94664257    -0.64600
O1979       O  0.30257294  0.74584209  0.96213865    -0.76900
C1980       C  0.24057541  0.74533685  0.98368348     0.86500
O1981       O  0.25245240  0.73107977  0.97725229    -0.64100
Ni1982     Ni  0.26843779  0.71973584  0.93777228     1.27400
Ni1983     Ni  0.20524248  0.73287573  0.94661807     1.26100
H1984       H  0.18840934  0.70274866  0.96337565     0.41100
O1985       O  0.03414937  0.72624420  0.06893774    -0.78900
O1986       O  0.02567798  0.75049153  0.02140615    -0.63600
O1987       O  0.01518093  0.75345059  0.05123105    -1.10200
C1988       C  0.40903094  0.64257751  0.04490829     1.08000
O1989       O  0.46963005  0.73866628  0.01950283    -0.76800
O1990       O  0.43023407  0.72926321  0.03621965    -0.64400
Ni1991     Ni  0.05355331  0.77057393  0.06085660     1.34900
C1992       C  0.42878917  0.73257228  0.04602898     0.86700
O1993       O  0.06218310  0.80218952  0.03627285    -0.77300
O1994       O  0.07560274  0.81564259  0.05346341    -0.87600
C1995       C  0.99889613  0.74349334  0.01560155     0.86300
O1996       O  0.08294882  0.75727140  0.05334782    -0.65800
O1997       O  0.40845958  0.65793777  0.03644657    -0.85100
C1998       C  0.08122828  0.74318790  0.04450145     0.87100
C1999       C  0.07913480  0.82413654  0.04371761     1.08700
H2000       H  0.48787914  0.68852820  0.03430079     0.40500
O2001       O  0.48113393  0.70568252  0.03653919    -1.07700
O2002       O  0.44223694  0.72058948  0.05261204    -0.64400
Ni2003     Ni  0.47512397  0.70260301  0.05139145     1.26300
O2004       O  0.05673675  0.73629631  0.03772135    -0.64600
O2005       O  0.43559634  0.65480336  0.05111907    -0.76900
C2006       C  0.49907955  0.69970698  0.07095352     0.86500
O2007       O  0.47351808  0.69994929  0.06624339    -0.64100
Ni2008     Ni  0.44117682  0.69875881  0.02834998     1.27400
Ni2009     Ni  0.02281805  0.75349500  0.03649856     1.26100
H2010       H  0.00534382  0.76892902  0.05225098     0.41100
O2011       O  0.02972696  0.75593447  0.97943168    -0.78900
O2012       O  0.02400124  0.79530239  0.93276135    -0.63600
O2013       O  0.01725526  0.78886820  0.96249990    -1.10200
C2014       C  0.41814736  0.67326016  0.95528393     1.08000
O2015       O  0.46587194  0.77291645  0.93052570    -0.76800
O2016       O  0.41680927  0.74221319  0.94606789    -0.64400
Ni2017     Ni  0.05757571  0.79600116  0.97055600     1.34900
C2018       C  0.41859791  0.75536974  0.95506875     0.86700
O2019       O  0.06238406  0.84026451  0.94789292    -0.77300
O2020       O  0.08987508  0.83700861  0.96246452    -0.87600
C2021       C  0.99832242  0.79550869  0.92811420     0.86300
O2022       O  0.06862445  0.76597034  0.96248686    -0.65800
O2023       O  0.42167501  0.68244075  0.94558546    -0.85100
C2024       C  0.07001124  0.76318462  0.95264940     0.87100
C2025       C  0.08916827  0.85241190  0.95403175     1.08700
H2026       H  0.49269977  0.72763533  0.94680164     0.40500
O2027       O  0.48349803  0.74358302  0.94797607    -1.07700
O2028       O  0.44286301  0.76112977  0.96181453    -0.64400
Ni2029     Ni  0.47592617  0.74280441  0.96273643     1.26300
O2030       O  0.05585072  0.77475883  0.94618655    -0.64600
O2031       O  0.43578829  0.69453782  0.96278958    -0.76900
C2032       C  0.49992875  0.75085239  0.98348904     0.86500
O2033       O  0.47320812  0.74503873  0.97784046    -0.64100
Ni2034     Ni  0.44515274  0.72801969  0.93838711     1.27400
Ni2035     Ni  0.02279077  0.79236898  0.94761742     1.26100
H2036       H  0.01036725  0.80581259  0.96484466     0.41100
O2037       O  0.19609851  0.96909836  0.06819894    -0.78900
O2038       O  0.23152698  0.97291987  0.02115672    -0.63600
O2039       O  0.24266712  0.98468574  0.05088670    -1.10200
C2040       C  0.23683700  0.58941100  0.04465815     1.08000
O2041       O  0.26913315  0.52689933  0.01913806    -0.76800
O2042       O  0.30134545  0.56924227  0.03503379    -0.64400
Ni2043     Ni  0.21918272  0.94682449  0.06058060     1.34900
C2044       C  0.30819681  0.56992805  0.04469614     0.86700
O2045       O  0.24517347  0.93684976  0.03643705    -0.77300
O2046       O  0.24047186  0.92203426  0.05365194    -0.87600
C2047       C  0.25180437  0.99977279  0.01552324     0.86300
O2048       O  0.17649105  0.91866233  0.05289260    -0.65800
O2049       O  0.25019387  0.58893297  0.03580040    -0.85100
C2050       C  0.16607502  0.91956331  0.04366822     0.87100
C2051       C  0.24741802  0.91871663  0.04405966     1.08700
H2052       H  0.20339885  0.50940666  0.03483466     0.40500
O2053       O  0.22780100  0.51669952  0.03663452    -1.07700
O2054       O  0.28436769  0.55622178  0.05175113    -0.64400
Ni2055     Ni  0.23333509  0.52399121  0.05140209     1.26300
O2056       O  0.18522726  0.94309964  0.03685685    -0.64600
O2057       O  0.22544172  0.56398755  0.05129515    -0.76900
C2058       C  0.20910133  0.50162255  0.07115536     0.86500
O2059       O  0.23480209  0.52661437  0.06624073    -0.64100
Ni2060     Ni  0.25819561  0.55594773  0.02781681     1.27400
Ni2061     Ni  0.23634899  0.97657135  0.03618172     1.26100
H2062       H  0.26771036  0.99348889  0.05216362     0.41100
O2063       O  0.22811558  0.96770958  0.97988824    -0.78900
O2064       O  0.26390543  0.97065655  0.93276347    -0.63600
O2065       O  0.27040698  0.97979625  0.96239383    -1.10200
C2066       C  0.24926179  0.57691567  0.95450515     1.08000
O2067       O  0.30303390  0.52770410  0.93080812    -0.76800
O2068       O  0.32065028  0.57786088  0.94611334    -0.64400
Ni2069     Ni  0.24060864  0.93994657  0.97112359     1.34900
C2070       C  0.33090974  0.57721521  0.95537656     0.86700
O2071       O  0.27397818  0.93354675  0.94757618    -0.77300
O2072       O  0.25018669  0.90810176  0.96309923    -0.87600
C2073       C  0.28968083  0.99585101  0.92793507     0.86300
O2074       O  0.19722201  0.92532239  0.96385661    -0.65800
O2075       O  0.25619843  0.57319390  0.94494526    -0.85100
C2076       C  0.19031246  0.92525074  0.95421825     0.87100
C2077       C  0.26356543  0.90820278  0.95419386     1.08700
H2078       H  0.23018992  0.50177464  0.94655118     0.40500
O2079       O  0.25524899  0.51116443  0.94796783    -1.07700
O2080       O  0.31180550  0.55347174  0.96217677    -0.64400
Ni2081     Ni  0.26058569  0.51954225  0.96271193     1.26300
O2082       O  0.21415200  0.94007066  0.94719697    -0.64600
O2083       O  0.25155534  0.55911278  0.96221172    -0.76900
C2084       C  0.24380204  0.49643629  0.98345315     0.86500
O2085       O  0.26435776  0.52321939  0.97780172    -0.64100
Ni2086     Ni  0.27860533  0.54904900  0.93824993     1.27400
Ni2087     Ni  0.26517063  0.97289201  0.94760094     1.26100
H2088       H  0.29491535  0.98759047  0.96420154     0.41100
C2089       C  0.24405224  0.49798653  0.99468833    -0.11300
C2090       C  0.25090255  0.99828413  0.00431531    -0.12800
C2091       C  0.39147331  0.63679137  0.95777408    -0.11300
C2092       C  0.36540828  0.60712435  0.95807187    -0.12800
C2093       C  0.12189588  0.88397077  0.95131434    -0.11300
C2094       C  0.15330631  0.90573997  0.95132613    -0.12800
C2095       C  0.37644859  0.61094454  0.04758818    -0.11300
C2096       C  0.34512182  0.58911105  0.04757970    -0.12800
C2097       C  0.10527844  0.86058727  0.04114268    -0.11300
C2098       C  0.13139169  0.89015280  0.04095709    -0.12800
C2099       C  0.49821316  0.74858298  0.99475374    -0.11300
C2100       C  0.00124751  0.74596574  0.00432167    -0.12800
C2101       C  0.36001303  0.75833745  0.95713148    -0.11300
C2102       C  0.38942606  0.76136534  0.95753811    -0.12800
C2103       C  0.11482303  0.74159240  0.94839662    -0.11300
C2104       C  0.09114845  0.74851043  0.94888042    -0.12800
C2105       C  0.23980623  0.60416099  0.95663324    -0.11300
C2106       C  0.23688764  0.63068634  0.95690861    -0.12800
C2107       C  0.25632854  0.84530137  0.95133931    -0.11300
C2108       C  0.26424960  0.87630227  0.95150075    -0.12800
C2109       C  0.38601343  0.75707616  0.04995349    -0.11300
C2110       C  0.40868729  0.74868751  0.04961073    -0.12800
C2111       C  0.13967586  0.73958535  0.04269580    -0.11300
C2112       C  0.11048061  0.73706826  0.04226854    -0.12800
C2113       C  0.23726705  0.62198696  0.04723418    -0.11300
C2114       C  0.24571557  0.65315998  0.04725735    -0.12800
C2115       C  0.25717314  0.89178746  0.04182222    -0.11300
C2116       C  0.26090780  0.86575781  0.04161262    -0.12800
C2117       C  0.24656966  0.74592414  0.99475941    -0.11300
C2118       C  0.24896106  0.74890695  0.00418437    -0.12800
C2119       C  0.47954343  0.65024655  0.08576508    -0.11300
C2120       C  0.49064828  0.67337527  0.07910458    -0.12800
C2121       C  0.41419357  0.58239851  0.17080452    -0.11300
C2122       C  0.41683632  0.58104394  0.16136359    -0.12800
C2123       C  0.06783434  0.59402570  0.12395058    -0.11300
C2124       C  0.04124885  0.59671563  0.12449578    -0.12800
C2125       C  0.32479756  0.57955165  0.11593238    -0.11300
C2126       C  0.29372650  0.57121487  0.11561425    -0.12800
C2127       C  0.18004860  0.52292664  0.08570551    -0.11300
C2128       C  0.19184487  0.51102124  0.07923785    -0.12800
C2129       C  0.16614890  0.58552366  0.17061072    -0.11300
C2130       C  0.16673672  0.58265980  0.16122223    -0.12800
C2131       C  0.26436614  0.57247072  0.20789766    -0.11300
C2132       C  0.29038327  0.56876808  0.20745385    -0.12800
C2133       C  0.03659806  0.59074322  0.21671559    -0.11300
C2134       C  0.00535696  0.58179450  0.21651983    -0.12800
C2135       C  0.41044104  0.94015363  0.12295042    -0.11300
C2136       C  0.41314822  0.96944766  0.12304943    -0.12800
C2137       C  0.42286305  0.73860841  0.11769443    -0.11300
C2138       C  0.43249233  0.71688525  0.11760469    -0.12800
C2139       C  0.03021497  0.93783564  0.12425617    -0.11300
C2140       C  0.05972953  0.96431523  0.12443245    -0.12800
C2141       C  0.28281756  0.70812779  0.11701040    -0.11300
C2142       C  0.26013021  0.67698964  0.11710108    -0.12800
C2143       C  0.35005006  0.81801857  0.08578533    -0.11300
C2144       C  0.32558673  0.80616831  0.07956288    -0.12800
C2145       C  0.07236128  0.98538743  0.21410615    -0.11300
C2146       C  0.04917461  0.95444978  0.21407032    -0.12800
C2147       C  0.27053224  0.70136862  0.20835697    -0.11300
C2148       C  0.29991868  0.72795272  0.20853495    -0.12800
C2149       C  0.40289506  0.94779037  0.21434719    -0.11300
C2150       C  0.41178751  0.92551544  0.21423717    -0.12800
C2151       C  0.42093000  0.72265932  0.20838639    -0.11300
C2152       C  0.41679623  0.69277284  0.20870614    -0.12800
C2153       C  0.41501093  0.83233989  0.16090838    -0.11300
C2154       C  0.41296723  0.82999687  0.17035226    -0.12800
C2155       C  0.33825827  0.98691875  0.25268375    -0.11300
C2156       C  0.34790571  0.50717859  0.24593779    -0.12800
C2157       C  0.33337447  0.91525398  0.33764777    -0.11300
C2158       C  0.33088940  0.91496328  0.32818523    -0.12800
C2159       C  0.44163921  0.90336008  0.37517268    -0.11300
C2160       C  0.47095857  0.90600697  0.37559387    -0.12800
C2161       C  0.24085843  0.91607013  0.38259672    -0.11300
C2162       C  0.21881270  0.92528439  0.38279592    -0.12800
C2163       C  0.19048173  0.92309032  0.29122573    -0.11300
C2164       C  0.22000877  0.92617861  0.29160529    -0.12800
C2165       C  0.44201708  0.90383443  0.28191874    -0.11300
C2166       C  0.41997470  0.91307071  0.28224377    -0.12800
C2167       C  0.07876638  0.91261487  0.33763311    -0.11300
C2168       C  0.07612001  0.90998381  0.32822353    -0.09200
C2169       C  0.00891582  0.85758358  0.25230494    -0.11300
C2170       C  0.48445673  0.84606016  0.24581909    -0.12800
C2171       C  0.43655032  0.52533804  0.37472872    -0.11300
C2172       C  0.46281143  0.55485887  0.37440484    -0.12800
C2173       C  0.20885683  0.77646153  0.38090712    -0.11300
C2174       C  0.17772493  0.75384231  0.38086326    -0.12800
C2175       C  0.08924374  0.52844462  0.37546863    -0.11300
C2176       C  0.08643494  0.55506328  0.37562456    -0.12800
C2177       C  0.08096243  0.81872267  0.38134250    -0.11300
C2178       C  0.07230561  0.78755359  0.38123612    -0.12800
C2179       C  0.48277092  0.57048015  0.28381630    -0.11300
C2180       C  0.45158356  0.54825916  0.28374107    -0.12800
C2181       C  0.19862993  0.77381322  0.29093183    -0.11300
C2182       C  0.22476590  0.80343991  0.29072031    -0.12800
C2183       C  0.09472294  0.54214015  0.28355708    -0.11300
C2184       C  0.08534892  0.51077028  0.28364036    -0.12800
C2185       C  0.07187260  0.77017267  0.29049328    -0.11300
C2186       C  0.06843268  0.79637382  0.29059609    -0.12800
C2187       C  0.07861178  0.66090464  0.32767232    -0.11300
C2188       C  0.07729853  0.65811595  0.33713082    -0.12800
C2189       C  0.13889059  0.65390669  0.25262081    -0.11300
C2190       C  0.15071348  0.64182384  0.24621365    -0.12800
C2191       C  0.01382506  0.69028417  0.41921996    -0.11300
C2192       C  0.02510287  0.67803054  0.41268080    -0.12800
C2193       C  0.00146495  0.75018234  0.50414991    -0.11300
C2194       C  0.50106759  0.74523266  0.49370321    -0.12800
C2195       C  0.11504077  0.87392384  0.45099784    -0.11300
C2196       C  0.09342214  0.84257275  0.45093438    -0.12800
C2197       C  0.39146044  0.62658014  0.45625114    -0.11300
C2198       C  0.36200253  0.60008125  0.45610111    -0.12800
C2199       C  0.15431755  0.97243197  0.41300478    -0.11300
C2200       C  0.17826140  0.98495709  0.41939814    -0.12800
C2201       C  0.24912316  0.99330257  0.50360395    -0.11300
C2202       C  0.25279090  0.49894775  0.49484632    -0.12800
C2203       C  0.13615283  0.89189325  0.54150078    -0.11300
C2204       C  0.10664605  0.86565131  0.54138086    -0.12800
C2205       C  0.38690290  0.62356324  0.54718127    -0.11300
C2206       C  0.40966223  0.65476409  0.54688491    -0.12800
C2207       C  0.36793752  0.75552331  0.45735247    -0.11300
C2208       C  0.39457590  0.75288476  0.45698308    -0.12800
C2209       C  0.12411909  0.73197171  0.45117161    -0.11300
C2210       C  0.15502235  0.73955416  0.45124837    -0.12800
C2211       C  0.24060549  0.63253840  0.45688292    -0.11300
C2212       C  0.23796092  0.60327004  0.45712127    -0.12800
C2213       C  0.25872319  0.87903526  0.44868266    -0.11300
C2214       C  0.25079999  0.90205332  0.44906974    -0.12800
C2215       C  0.30852126  0.81627860  0.41908588    -0.11300
C2216       C  0.32053299  0.84011081  0.41264065    -0.12800
C2217       C  0.12924385  0.73634310  0.54154907    -0.11300
C2218       C  0.10256675  0.73909327  0.54187878    -0.12800
C2219       C  0.34554652  0.75181960  0.54924584    -0.11300
C2220       C  0.37678410  0.76070194  0.54924816    -0.12800
C2221       C  0.26003434  0.88911411  0.54102340    -0.11300
C2222       C  0.25692425  0.85973907  0.54117154    -0.12800
C2223       C  0.24669854  0.59002767  0.54875130    -0.11300
C2224       C  0.23772486  0.61224527  0.54908897    -0.12800
C2225       C  0.24933576  0.74442520  0.50443744    -0.11300
C2226       C  0.25165366  0.74452740  0.49497803    -0.12800
C2227       C  0.00660364  0.82197197  0.92000478    -0.11300
C2228       C  0.01779884  0.84554629  0.91347497    -0.12800
C2229       C  0.08570097  0.91712971  0.83818723    -0.11300
C2230       C  0.08894499  0.91856857  0.82872977    -0.12800
C2231       C  0.23095201  0.92745173  0.79028763    -0.11300
C2232       C  0.20442055  0.93019788  0.79059797    -0.12800
C2233       C  0.45938368  0.90635251  0.78539941    -0.11300
C2234       C  0.49037904  0.91429726  0.78541852    -0.12800
C2235       C  0.31919467  0.97475264  0.91346266    -0.11300
C2236       C  0.30728883  0.98673209  0.91987944    -0.12800
C2237       C  0.17421507  0.91696505  0.88356512    -0.11300
C2238       C  0.20554387  0.92607101  0.88365403    -0.12800
C2239       C  0.46054235  0.90371254  0.87507539    -0.11300
C2240       C  0.43356013  0.90586085  0.87541603    -0.12800
C2241       C  0.33424217  0.92052297  0.83790537    -0.11300
C2242       C  0.33324999  0.91923251  0.82845445    -0.12800
C2243       C  0.08775640  0.57647527  0.78500112    -0.11300
C2244       C  0.09670039  0.55416111  0.78477272    -0.12800
C2245       C  0.07645134  0.80676950  0.79035004    -0.11300
C2246       C  0.07358825  0.77739510  0.79066404    -0.12800
C2247       C  0.19731907  0.77460674  0.79140714    -0.11300
C2248       C  0.22679431  0.80103752  0.79144592    -0.12800
C2249       C  0.42951203  0.51579050  0.78454953    -0.11300
C2250       C  0.45164065  0.54701029  0.78449005    -0.12800
C2251       C  0.17663747  0.69149281  0.91915346    -0.11300
C2252       C  0.15213254  0.67922437  0.91293989    -0.12800
C2253       C  0.08115042  0.67035523  0.82905566    -0.11300
C2254       C  0.07862733  0.66701371  0.83848657    -0.12800
C2255       C  0.43924682  0.53352059  0.87572543    -0.11300
C2256       C  0.46861786  0.56008799  0.87604216    -0.12800
C2257       C  0.23793644  0.82129532  0.88157650    -0.11300
C2258       C  0.21458976  0.79042555  0.88153564    -0.12800
C2259       C  0.08426651  0.52812745  0.87555556    -0.11300
C2260       C  0.08797624  0.55781567  0.87545559    -0.12800
C2261       C  0.07322993  0.75695663  0.88311758    -0.11300
C2262       C  0.06391379  0.77888413  0.88318541    -0.12800
C2263       C  0.15927488  0.51156375  0.74642354    -0.11300
C2264       C  0.14372776  0.99030971  0.75248636    -0.12800
C2265       C  0.16748499  0.58759078  0.66195525    -0.11300
C2266       C  0.17050499  0.58833438  0.67140795    -0.12800
C2267       C  0.19141160  0.67964853  0.58008542    -0.11300
C2268       C  0.17995395  0.65620448  0.58663465    -0.12800
C2269       C  0.27590059  0.69731374  0.70938526    -0.11300
C2270       C  0.30208317  0.72686679  0.70900287    -0.12800
C2271       C  0.01443777  0.92522209  0.71336675    -0.11300
C2272       C  0.04544793  0.94825291  0.71344743    -0.12800
C2273       C  0.34862274  0.85948173  0.75337346    -0.11300
C2274       C  0.36067746  0.84808631  0.74679915    -0.12800
C2275       C  0.03192214  0.93922816  0.62387280    -0.11300
C2276       C  0.05806294  0.96889161  0.62367877    -0.12800
C2277       C  0.29177593  0.72197166  0.61794887    -0.11300
C2278       C  0.32337567  0.74315409  0.61775473    -0.12800
C2279       C  0.41926154  0.83106580  0.66141222    -0.11300
C2280       C  0.41665301  0.83113270  0.67083689    -0.12800
C2281       C  0.48799532  0.80782855  0.57890022    -0.11300
C2282       C  0.47609401  0.81956760  0.58539455    -0.12800
C2283       C  0.40817133  0.96018155  0.71644183    -0.11300
C2284       C  0.41644279  0.99125341  0.71611940    -0.12800
C2285       C  0.43305454  0.70718161  0.70824151    -0.11300
C2286       C  0.43013465  0.73365399  0.70872669    -0.12800
C2287       C  0.07916353  0.58823358  0.71711819    -0.11300
C2288       C  0.05670643  0.59694435  0.71741604    -0.12800
C2289       C  0.27893246  0.57471748  0.70821052    -0.11300
C2290       C  0.30876329  0.57885657  0.70852887    -0.12800
C2291       C  0.01531455  0.65629229  0.75337017    -0.11300
C2292       C  0.49323650  0.64790743  0.74604967    -0.12800
C2293       C  0.28330865  0.57467637  0.61808039    -0.11300
C2294       C  0.26138610  0.58415679  0.61825210    -0.12800
C2295       C  0.03009565  0.59520928  0.62373035    -0.11300
C2296       C  0.05947762  0.59814487  0.62409581    -0.12800
C2297       C  0.43089597  0.70741990  0.61505390    -0.11300
C2298       C  0.42291587  0.67654474  0.61571694    -0.12800
C2299       C  0.40695660  0.93266190  0.62410077    -0.11300
C2300       C  0.40404003  0.95917449  0.62444142    -0.12800
C2301       C  0.41829347  0.58272601  0.66130849    -0.11300
C2302       C  0.41812581  0.58552608  0.67074827    -0.12800
C2303       C  0.32130647  0.51054966  0.57961463    -0.11300
C2304       C  0.34454552  0.52144519  0.58620818    -0.12800
O2305       O  0.89833480  0.09891459  0.64785527    -0.78900
O2306       O  0.87166294  0.06429313  0.59945929    -0.63600
O2307       O  0.87450640  0.05994065  0.62921310    -1.10200
C2308       C  0.99239101  0.08150666  0.62192939     1.08000
O2309       O  0.89154504  0.02651761  0.59768837    -0.76800
O2310       O  0.92384511  0.00960388  0.61308641    -0.64400
Ni2311     Ni  0.86488702  0.09183059  0.63709439     1.34900
C2312       C  0.91338808  0.50056871  0.62102962     0.86700
O2313       O  0.82432058  0.05321890  0.61416163    -0.77300
O2314       O  0.82859242  0.08804029  0.62762551    -0.87600
C2315       C  0.87096002  0.03815998  0.59483459     0.86300
O2316       O  0.90066317  0.13350347  0.63032104    -0.65800
O2317       O  0.98267723  0.07500290  0.61229484    -0.85100
C2318       C  0.90337354  0.13995892  0.62058259     0.87100
C2319       C  0.81255356  0.06958852  0.61960381     1.08700
H2320       H  0.93630859  0.09966382  0.61364293     0.40500
O2321       O  0.92100336  0.07446842  0.61493651    -1.07700
O2322       O  0.90580237  0.01688662  0.62893824    -0.64400
Ni2323     Ni  0.92250809  0.06815118  0.62967808     1.26300
O2324       O  0.88983532  0.11529034  0.61367588    -0.64600
O2325       O  0.97144189  0.07811542  0.62950899    -0.76900
C2326       C  0.91320661  0.08175600  0.65091909     0.86500
O2327       O  0.92177530  0.06401990  0.64474917    -0.64100
Ni2328     Ni  0.93676944  0.05181436  0.60533547     1.27400
Ni2329     Ni  0.87281536  0.06393300  0.61431274     1.26100
H2330       H  0.85783854  0.03571421  0.63130699     0.41100
O2331       O  0.94313763  0.14092820  0.73549600    -0.78900
O2332       O  0.91504436  0.10664458  0.68829894    -0.63600
O2333       O  0.91385558  0.09405591  0.71808922    -1.10200
C2334       C  0.52190350  0.09828268  0.71120698     1.08000
O2335       O  0.92844930  0.06399745  0.68684062    -0.76800
O2336       O  0.94052448  0.03385414  0.70303781    -0.64400
Ni2337     Ni  0.89809002  0.11632353  0.72777051     1.34900
C2338       C  0.93447870  0.02775497  0.71274283     0.86700
O2339       O  0.86433325  0.09235549  0.70343287    -0.77300
O2340       O  0.85240451  0.09359687  0.72069741    -0.87600
C2341       C  0.92144036  0.08616699  0.68266197     0.86300
O2342       O  0.91133905  0.15882940  0.72013908    -0.65800
O2343       O  0.50653299  0.08240042  0.70274265    -0.85100
C2344       C  0.92451532  0.17052510  0.71115750     0.87100
C2345       C  0.84307387  0.08806056  0.71101784     1.08700
H2346       H  0.97721270  0.13205323  0.70202343     0.40500
O2347       O  0.96014753  0.10776532  0.70395324    -1.07700
O2348       O  0.94327976  0.05219608  0.71954924    -0.64400
Ni2349     Ni  0.96176213  0.10323878  0.71878385     1.26300
O2350       O  0.93065856  0.15240133  0.70438958    -0.64600
O2351       O  0.50963884  0.11245572  0.71745002    -0.76900
C2352       C  0.96344795  0.12891731  0.73832704     0.86500
O2353       O  0.96276457  0.10287064  0.73363969    -0.64100
Ni2354     Ni  0.96900877  0.07671367  0.69545756     1.27400
Ni2355     Ni  0.91286737  0.10117435  0.70337383     1.26100
H2356       H  0.89805527  0.06883740  0.71921975     0.41100
O2357       O  0.89565061  0.30189898  0.64608936    -0.78900
O2358       O  0.93396142  0.30584097  0.59902180    -0.63600
O2359       O  0.93893049  0.31416984  0.62870453    -1.10200
C2360       C  0.91971753  0.41179553  0.62107336     1.08000
O2361       O  0.97317508  0.36330680  0.59722058    -0.76800
O2362       O  0.99088099  0.41397062  0.61244416    -0.64400
Ni2363     Ni  0.90838408  0.27421188  0.63732901     1.34900
C2364       C  0.49665099  0.40667892  0.62121871     0.86700
O2365       O  0.94168039  0.26704195  0.61382831    -0.77300
O2366       O  0.91766363  0.24203845  0.62936319    -0.87600
C2367       C  0.96053736  0.33085915  0.59439653     0.86300
O2368       O  0.86543240  0.25981262  0.62983858    -0.65800
O2369       O  0.92606868  0.40810312  0.61145466    -0.85100
C2370       C  0.85895196  0.25972914  0.62016158     0.87100
C2371       C  0.93037640  0.24145411  0.62040824     1.08700
H2372       H  0.90046387  0.33732390  0.61308454     0.40500
O2373       O  0.92557047  0.34653329  0.61436541    -1.07700
O2374       O  0.98298378  0.38885525  0.62835412    -0.64400
Ni2375     Ni  0.93184198  0.35473541  0.62907010     1.26300
O2376       O  0.88309500  0.27522438  0.61324368    -0.64600
O2377       O  0.92265872  0.39420546  0.62873601    -0.76900
C2378       C  0.91706530  0.33195082  0.64998171     0.86500
O2379       O  0.93669620  0.35853207  0.64413567    -0.64100
Ni2380     Ni  0.94869131  0.38448291  0.60466335     1.27400
Ni2381     Ni  0.93429469  0.30744071  0.61386483     1.26100
H2382       H  0.96332065  0.32178696  0.63061500     0.41100
O2383       O  0.86514377  0.30861082  0.73506888    -0.78900
O2384       O  0.89852872  0.30994802  0.68789562    -0.63600
O2385       O  0.91128299  0.32419627  0.71759269    -1.10200
C2386       C  0.90626896  0.42858651  0.71079360     1.08000
O2387       O  0.94032013  0.36609725  0.68571110    -0.76800
O2388       O  0.97114846  0.40895351  0.70169757    -0.64400
Ni2389     Ni  0.88915999  0.28706386  0.72757132     1.34900
C2390       C  0.97763184  0.40926174  0.71138234     0.86700
O2391       O  0.91347227  0.27550723  0.70344010    -0.77300
O2392       O  0.91145426  0.26306634  0.72078737    -0.87600
C2393       C  0.91825451  0.33610977  0.68192593     0.86300
O2394       O  0.84640003  0.25716365  0.72010209    -0.65800
O2395       O  0.91929277  0.42763082  0.70192552    -0.85100
C2396       C  0.83495194  0.25731503  0.71096413     0.87100
C2397       C  0.91728777  0.25875602  0.71117078     1.08700
H2398       H  0.87301767  0.34794606  0.70113477     0.40500
O2399       O  0.89739181  0.35550418  0.70304914    -1.07700
O2400       O  0.95351122  0.39510261  0.71834548    -0.64400
Ni2401     Ni  0.90238235  0.36320000  0.71784723     1.26300
O2402       O  0.85309551  0.28094406  0.70402244    -0.64600
O2403       O  0.89498947  0.40348221  0.71753002    -0.76900
C2404       C  0.87754813  0.34121449  0.73767468     0.86500
O2405       O  0.90319350  0.36614877  0.73270734    -0.64100
Ni2406     Ni  0.92818485  0.39475674  0.69421576     1.27400
Ni2407     Ni  0.90423673  0.31485967  0.70293513     1.26100
H2408       H  0.93646962  0.33354725  0.71874741     0.41100
O2409       O  0.69869254  0.09229035  0.64669420    -0.78900
O2410       O  0.69369527  0.12487692  0.59926877    -0.63600
O2411       O  0.68601709  0.12211301  0.62899703    -1.10200
C2412       C  0.58788845  0.00497204  0.62190202     1.08000
O2413       O  0.63606523  0.10494635  0.59718976    -0.76800
O2414       O  0.58639360  0.07386550  0.61265958    -0.64400
Ni2415     Ni  0.72648524  0.13054387  0.63725127     1.34900
C2416       C  0.58741046  0.08633909  0.62171864     0.86700
O2417       O  0.73153256  0.17176588  0.61399466    -0.77300
O2418       O  0.75917439  0.17010928  0.62869492    -0.87600
C2419       C  0.66845913  0.12516394  0.59439304     0.86300
O2420       O  0.73665827  0.09861821  0.62988822    -0.65800
O2421       O  0.59172957  0.01444493  0.61223157    -0.85100
C2422       C  0.73788617  0.09414632  0.62013418     0.87100
C2423       C  0.75841720  0.18464850  0.62009091     1.08700
H2424       H  0.66279969  0.06005789  0.61365203     0.40500
O2425       O  0.65334420  0.07580296  0.61480175    -1.07700
O2426       O  0.61150458  0.09220037  0.62854499    -0.64400
Ni2427     Ni  0.64526938  0.07470508  0.62954150     1.26300
O2428       O  0.72465361  0.10563115  0.61332991    -0.64600
O2429       O  0.60542691  0.02605024  0.62947591    -0.76900
C2430       C  0.66857278  0.08384515  0.65049873     0.86500
O2431       O  0.64196994  0.07681545  0.64462278    -0.64100
Ni2432     Ni  0.61529398  0.06008517  0.60508628     1.27400
Ni2433     Ni  0.69194498  0.12383549  0.61412022     1.26100
H2434       H  0.67896797  0.13922539  0.63102178     0.41100
O2435       O  0.69670572  0.05947321  0.73542242    -0.78900
O2436       O  0.69383804  0.08953564  0.68820290    -0.63600
O2437       O  0.68145091  0.09026612  0.71794828    -1.10200
C2438       C  0.57811615  0.47850418  0.70970301     1.08000
O2439       O  0.63762409  0.07515957  0.68653507    -0.76800
O2440       O  0.59300208  0.06053725  0.70209767    -0.64400
Ni2441     Ni  0.71886645  0.10496018  0.72778885     1.34900
C2442       C  0.59450360  0.06977485  0.71157270     0.86700
O2443       O  0.72979981  0.13994773  0.70349760    -0.77300
O2444       O  0.74324897  0.15097119  0.72079678    -0.87600
C2445       C  0.66706493  0.08267966  0.68245181     0.86300
O2446       O  0.74793165  0.09117541  0.72025956    -0.65800
O2447       O  0.57941596  0.49285195  0.70086148    -0.85100
C2448       C  0.74709150  0.07910941  0.71114496     0.87100
C2449       C  0.74719405  0.16076664  0.71113826     1.08700
H2450       H  0.65682892  0.02695948  0.70216848     0.40500
O2451       O  0.64918734  0.04392169  0.70379618    -1.07700
O2452       O  0.61085347  0.06303777  0.71868487    -0.64400
Ni2453     Ni  0.64185795  0.04279336  0.71856760     1.26300
O2454       O  0.72327248  0.07365804  0.70430550    -0.64600
O2455       O  0.60292502  0.49201758  0.71653999    -0.76900
C2456       C  0.66406571  0.04009029  0.73816570     0.86500
O2457       O  0.63957568  0.04226802  0.73341540    -0.64100
Ni2458     Ni  0.60985316  0.03369635  0.69483158     1.27400
Ni2459     Ni  0.68993578  0.09139437  0.70327548     1.26100
H2460       H  0.67266702  0.10659313  0.71905354     0.41100
O2461       O  0.58739118  0.19605767  0.85293104    -0.78900
O2462       O  0.62721690  0.19634998  0.89974674    -0.63600
O2463       O  0.62058322  0.18595219  0.87014891    -1.10200
C2464       C  0.50507846  0.08769476  0.87863865     1.08000
O2465       O  0.60805578  0.13898618  0.90217546    -0.76800
O2466       O  0.57516239  0.08771322  0.88721435    -0.64400
Ni2467     Ni  0.62729697  0.22530884  0.86167007     1.34900
C2468       C  0.58668707  0.08823763  0.87804509     0.86700
O2469       O  0.67202748  0.23286896  0.88440412    -0.77300
O2470       O  0.66822393  0.25889244  0.86959379    -0.87600
C2471       C  0.62840794  0.17166541  0.90465732     0.86300
O2472       O  0.59649352  0.23624818  0.86937453    -0.65800
O2473       O  0.51553343  0.09255371  0.88823106    -0.85100
C2474       C  0.59315596  0.23825711  0.87915672     0.87100
C2475       C  0.68406649  0.25895887  0.87801739     1.08700
H2476       H  0.56048871  0.16373050  0.88615542     0.40500
O2477       O  0.57623789  0.15435103  0.88488510    -1.07700
O2478       O  0.59172444  0.11187035  0.87116145    -0.64400
Ni2479     Ni  0.57345033  0.14489816  0.87019750     1.26300
O2480       O  0.60578832  0.22584025  0.88587218    -0.64600
O2481       O  0.52521582  0.10473673  0.87085386    -0.76900
C2482       C  0.58009962  0.16624270  0.84915092     0.86500
O2483       O  0.57391892  0.14010582  0.85512100    -0.64100
Ni2484     Ni  0.56212268  0.11713637  0.89484116     1.27400
Ni2485     Ni  0.62420501  0.19324084  0.88494899     1.26100
H2486       H  0.63763489  0.17898697  0.86797580     0.41100
O2487       O  0.55919900  0.20040845  0.76413264    -0.78900
O2488       O  0.58818779  0.19310333  0.81158549    -0.63600
O2489       O  0.58918852  0.18341674  0.78164001    -1.10200
C2490       C  0.98154965  0.07861249  0.78668990     1.08000
O2491       O  0.57419176  0.13684618  0.81284360    -0.76800
O2492       O  0.56152673  0.09480369  0.79651172    -0.64400
Ni2493     Ni  0.60404342  0.22182352  0.77209212     1.34900
C2494       C  0.56858619  0.09588077  0.78684171     0.86700
O2495       O  0.63887389  0.23053530  0.79645258    -0.77300
O2496       O  0.64963201  0.24600028  0.77928405    -0.87600
C2497       C  0.58119755  0.16585694  0.81714603     0.86300
O2498       O  0.58890902  0.24929207  0.77983290    -0.65800
O2499       O  0.99528992  0.07772511  0.79543897    -0.85100
C2500       C  0.57686118  0.24782256  0.78898147     0.87100
C2501       C  0.65954780  0.24888229  0.78889924     1.08700
H2502       H  0.52591815  0.15720328  0.79769565     0.40500
O2503       O  0.54295286  0.14995209  0.79575729    -1.07700
O2504       O  0.56057581  0.11233166  0.78009264    -0.64400
Ni2505     Ni  0.54146047  0.14429086  0.78088804     1.26300
O2506       O  0.57248292  0.22417718  0.79578400    -0.64600
O2507       O  0.99558227  0.10473650  0.78033249    -0.76900
C2508       C  0.53954959  0.16803154  0.76121754     0.86500
O2509       O  0.54045495  0.14293937  0.76600794    -0.64100
Ni2510     Ni  0.53350120  0.10955481  0.80417568     1.27400
Ni2511     Ni  0.59030399  0.19068312  0.79644642     1.26100
H2512       H  0.60526385  0.17443246  0.78035612     0.41100
O2513       O  0.79381035  0.41023360  0.85150597    -0.78900
O2514       O  0.80027242  0.42950141  0.90090082    -0.63600
O2515       O  0.80981826  0.44101745  0.87132168    -1.10200
C2516       C  0.90380701  0.41465925  0.87776006     1.08000
O2517       O  0.85783515  0.46646656  0.90322216    -0.76800
O2518       O  0.90718883  0.48659227  0.88775079    -0.64400
Ni2519     Ni  0.76776778  0.41233378  0.86317054     1.34900
C2520       C  0.90708296  0.49830539  0.87864686     0.86700
O2521       O  0.76624295  0.44593366  0.88678755    -0.77300
O2522       O  0.73505327  0.41179033  0.87337933    -0.87600
C2523       C  0.82545215  0.45442689  0.90594220     0.86300
O2524       O  0.76306886  0.36924200  0.86854091    -0.65800
O2525       O  0.90145665  0.42137842  0.88742974    -0.85100
C2526       C  0.75853774  0.36031494  0.87813731     0.87100
C2527       C  0.73768771  0.42959200  0.88153614     1.08700
H2528       H  0.82945539  0.39675340  0.88624517     0.40500
O2529       O  0.83986776  0.42213108  0.88518202    -1.07700
O2530       O  0.88398809  0.48020081  0.87159479    -0.64400
Ni2531     Ni  0.84782354  0.42982187  0.87049664     1.26300
O2532       O  0.76824526  0.38299444  0.88558890    -0.64600
O2533       O  0.88530360  0.41758310  0.87036515    -0.76900
C2534       C  0.82602820  0.42255506  0.84893493     0.86500
O2535       O  0.85189348  0.43527196  0.85545908    -0.64100
Ni2536     Ni  0.87814890  0.44296335  0.89492841     1.27400
Ni2537     Ni  0.80317561  0.43391852  0.88613841     1.26100
H2538       H  0.81878910  0.46589771  0.86970674     0.41100
O2539       O  0.80659395  0.36521329  0.76365689    -0.78900
O2540       O  0.81147167  0.40219320  0.81103173    -0.63600
O2541       O  0.82325893  0.41169385  0.78121511    -1.10200
C2542       C  0.92706592  0.40737420  0.78567342     1.08000
O2543       O  0.86964340  0.42869422  0.81502638    -0.76800
O2544       O  0.89991311  0.46806187  0.79769513    -0.64400
Ni2545     Ni  0.78502610  0.38857952  0.77152781     1.34900
C2546       C  0.90474304  0.47605749  0.78803665     0.86700
O2547       O  0.77712364  0.41677921  0.79565242    -0.77300
O2548       O  0.76049349  0.40986454  0.77856593    -0.87600
C2549       C  0.83732417  0.41597435  0.81755350     0.86300
O2550       O  0.75665658  0.34576596  0.77916035    -0.65800
O2551       O  0.92943392  0.42616877  0.79357286    -0.85100
C2552       C  0.75643619  0.33576586  0.78851940     0.87100
C2553       C  0.75795302  0.41770263  0.78811556     1.08700
H2554       H  0.84573843  0.37105890  0.79742666     0.40500
O2555       O  0.85421373  0.39564595  0.79553846    -1.07700
O2556       O  0.89509608  0.45254014  0.78080346    -0.64400
Ni2557     Ni  0.86088542  0.40114018  0.78068226     1.26300
O2558       O  0.77961518  0.35502699  0.79542590    -0.64600
O2559       O  0.89852321  0.39008065  0.78047406    -0.76900
C2560       C  0.83911077  0.37817124  0.76087885     0.86500
O2561       O  0.86388165  0.40375205  0.76586347    -0.64100
Ni2562     Ni  0.89613473  0.42597045  0.80356776     1.27400
Ni2563     Ni  0.81538963  0.40574690  0.79595532     1.26100
H2564       H  0.83307083  0.43683623  0.77984069     0.41100
O2565       O  0.60542801  0.40734419  0.85428383    -0.78900
O2566       O  0.56183763  0.37294102  0.90086076    -0.63600
O2567       O  0.55940782  0.37576418  0.87112535    -1.10200
C2568       C  0.57768210  0.49244556  0.87793497     1.08000
O2569       O  0.52300370  0.39170727  0.90237569    -0.76800
O2570       O  0.50510403  0.42186144  0.88655142    -0.64400
Ni2571     Ni  0.59128632  0.36669037  0.86302942     1.34900
C2572       C  0.49529615  0.41025425  0.87731859     0.86700
O2573       O  0.55505984  0.32626404  0.88630867    -0.77300
O2574       O  0.58043103  0.32505184  0.87103966    -0.87600
C2575       C  0.53543682  0.37193742  0.90538185     0.86300
O2576       O  0.63320976  0.39496561  0.87103495    -0.65800
O2577       O  0.56941155  0.48237256  0.88749563    -0.85100
C2578       C  0.63819938  0.40189988  0.88073521     0.87100
C2579       C  0.56663235  0.31181384  0.87989819     1.08700
H2580       H  0.59613103  0.43768502  0.88674264     0.40500
O2581       O  0.57118002  0.42168368  0.88527278    -1.07700
O2582       O  0.51515715  0.40607225  0.87068110    -0.64400
Ni2583     Ni  0.56648693  0.42326328  0.87044347     1.26300
O2584       O  0.61313844  0.39310728  0.88727813    -0.64600
O2585       O  0.57592067  0.47191020  0.87043822    -0.76900
C2586       C  0.58418686  0.41519210  0.84987190     0.86500
O2587       O  0.56343720  0.42184566  0.85529233    -0.64100
Ni2588     Ni  0.54714665  0.43664298  0.89458319     1.27400
Ni2589     Ni  0.56237086  0.37390497  0.88603594     1.26100
H2590       H  0.53529284  0.35889152  0.86899644     0.41100
O2591       O  0.63764339  0.44243952  0.76367375    -0.78900
O2592       O  0.60302660  0.41284759  0.81153239    -0.63600
O2593       O  0.59256703  0.41501465  0.78167247    -1.10200
C2594       C  0.59550348  0.02210371  0.78607607     1.08000
O2595       O  0.57706688  0.44495771  0.81553138    -0.76800
O2596       O  0.53782288  0.43541819  0.79808229    -0.64400
Ni2597     Ni  0.61378100  0.39814746  0.77187791     1.34900
C2598       C  0.52989970  0.43282783  0.78842403     0.86700
O2599       O  0.58622731  0.36348098  0.79623972    -0.77300
O2600       O  0.59170555  0.35268261  0.77916338    -0.87600
C2601       C  0.58960638  0.42520534  0.81808897     0.86300
O2602       O  0.65702932  0.41232868  0.77923736    -0.65800
O2603       O  0.57828236  0.00607331  0.79426256    -0.85100
C2604       C  0.66807479  0.42293456  0.78847695     0.87100
C2605       C  0.58384169  0.34273323  0.78874404     1.08700
H2606       H  0.63468044  0.47806925  0.79791878     0.40500
O2607       O  0.61006981  0.46228341  0.79599064    -1.07700
O2608       O  0.55347066  0.44746799  0.78124492    -0.64400
Ni2609     Ni  0.60458912  0.46367802  0.78112831     1.26300
O2610       O  0.64938867  0.42699200  0.79556846    -0.64600
O2611       O  0.61213889  0.01088525  0.78049362    -0.76900
C2612       C  0.62607659  0.46332401  0.76104214     0.86500
O2613       O  0.60189463  0.46441164  0.76628479    -0.64100
Ni2614     Ni  0.57975658  0.47397215  0.80397572     1.27400
Ni2615     Ni  0.59888508  0.41310402  0.79642856     1.26100
H2616       H  0.56728445  0.40025092  0.78041623     0.41100
O2617       O  0.76442402  0.22609454  0.51760998    -0.78900
O2618       O  0.73229967  0.20038857  0.56629028    -0.63600
O2619       O  0.72713658  0.20378971  0.53654490    -1.10200
C2620       C  0.74998421  0.32219946  0.54406763     1.08000
O2621       O  0.69539026  0.22120136  0.56844091    -0.76800
O2622       O  0.67783015  0.25315570  0.55304270    -0.64400
Ni2623     Ni  0.75891333  0.19401828  0.52862120     1.34900
C2624       C  0.66665875  0.24146081  0.54389887     0.86700
O2625       O  0.72072583  0.15319702  0.55148089    -0.77300
O2626       O  0.75669286  0.15876287  0.53823302    -0.87600
C2627       C  0.70692680  0.20039866  0.57116931     0.86300
O2628       O  0.80035684  0.23083828  0.53523469    -0.65800
O2629       O  0.74317830  0.31222524  0.55367856    -0.85100
C2630       C  0.80695030  0.23320850  0.54497437     0.87100
C2631       C  0.73818365  0.14228032  0.54619170     1.08700
H2632       H  0.76754117  0.26530555  0.55222987     0.40500
O2633       O  0.74231972  0.25017316  0.55094059    -1.07700
O2634       O  0.68518179  0.23635925  0.53699200    -0.64400
Ni2635     Ni  0.73617512  0.25219965  0.53620299     1.26300
O2636       O  0.78251069  0.21873164  0.55189995    -0.64600
O2637       O  0.74691113  0.30141414  0.53647609    -0.76900
C2638       C  0.74839535  0.24237111  0.51478174     0.86500
O2639       O  0.73197851  0.25201788  0.52112915    -0.64100
Ni2640     Ni  0.72029565  0.26626451  0.56066932     1.27400
Ni2641     Ni  0.73135085  0.20176918  0.55143876     1.26100
H2642       H  0.70284799  0.18739553  0.53444841     0.41100
O2643       O  0.80749397  0.27246289  0.43040915    -0.78900
O2644       O  0.77301392  0.24322344  0.47755172    -0.63600
O2645       O  0.76121060  0.24144357  0.44773666    -1.10200
C2646       C  0.76553287  0.35157015  0.45354643     1.08000
O2647       O  0.72992216  0.25595337  0.47860325    -0.76800
O2648       O  0.70079083  0.27169295  0.46298216    -0.64400
Ni2649     Ni  0.78501564  0.22736105  0.43811762     1.34900
C2650       C  0.69334180  0.26177526  0.45354361     0.86700
O2651       O  0.76038448  0.19277571  0.46244197    -0.77300
O2652       O  0.76430674  0.18173393  0.44523135    -0.87600
C2653       C  0.75203638  0.24939191  0.48301794     0.86300
O2654       O  0.82788831  0.24257373  0.44576574    -0.65800
O2655       O  0.75564956  0.34025594  0.46285291    -0.85100
C2656       C  0.83856132  0.25461861  0.45491290     0.87100
C2657       C  0.75795080  0.17207962  0.45488662     1.08700
H2658       H  0.79840298  0.30529469  0.46334862     0.40500
O2659       O  0.77393500  0.28795615  0.46170061    -1.07700
O2660       O  0.71663787  0.26736783  0.44661289    -0.64400
Ni2661     Ni  0.76797904  0.28843291  0.44691793     1.26300
O2662       O  0.81951472  0.25943823  0.46167097    -0.64600
O2663       O  0.77335199  0.33533752  0.44661834    -0.76900
C2664       C  0.79350785  0.29095158  0.42748046     0.86500
O2665       O  0.76645860  0.28833504  0.43208768    -0.64100
Ni2666     Ni  0.74419807  0.29779518  0.47047411     1.27400
Ni2667     Ni  0.76814659  0.24092523  0.46245077     1.26100
H2668       H  0.73622715  0.22467265  0.44656211     0.41100
O2669       O  0.76584842  0.03128940  0.51966201    -0.78900
O2670       O  0.79367245  0.02344631  0.56730413    -0.63600
O2671       O  0.79360018  0.01690551  0.53758659    -1.10200
C2672       C  0.67459596  0.41641651  0.54442077     1.08000
O2673       O  0.77625427  0.46739045  0.56855380    -0.76800
O2674       O  0.74588703  0.41688731  0.55331692    -0.64400
Ni2675     Ni  0.80385235  0.05787281  0.52929338     1.34900
C2676       C  0.75727539  0.41774049  0.54410770     0.86700
O2677       O  0.84195906  0.06170280  0.55302192    -0.77300
O2678       O  0.84331048  0.08937371  0.53800226    -0.87600
C2679       C  0.79432724  0.99825590  0.57207747     0.86300
O2680       O  0.77280724  0.06981532  0.53645602    -0.65800
O2681       O  0.68492214  0.41972501  0.55400598    -0.85100
C2682       C  0.76626684  0.06971239  0.54612913     0.87100
C2683       C  0.85625279  0.08838435  0.54686996     1.08700
H2684       H  0.72845962  0.49098392  0.55245669     0.40500
O2685       O  0.74494555  0.48249153  0.55119059    -1.07700
O2686       O  0.76134906  0.44112294  0.53723442    -0.64400
Ni2687     Ni  0.74312379  0.47434777  0.53646311     1.26300
O2688       O  0.77573071  0.05498042  0.55305077    -0.64600
O2689       O  0.69486679  0.43434698  0.53676633    -0.76900
C2690       C  0.75016882  0.49750147  0.51570186     0.86500
O2691       O  0.74431136  0.47082369  0.52135721    -0.64100
Ni2692     Ni  0.73093345  0.44479748  0.56093874     1.27400
Ni2693     Ni  0.79403283  0.02229498  0.55247392     1.26100
H2694       H  0.81057422  0.00947848  0.53574737     0.41100
O2695       O  0.72650931  0.02594156  0.43032216    -0.78900
O2696       O  0.75796528  0.01961704  0.47751616    -0.63600
O2697       O  0.75549665  0.00771019  0.44769686    -1.10200
C2698       C  0.64750819  0.40610571  0.45449967     1.08000
O2699       O  0.74367898  0.46752719  0.47971385    -0.76800
O2700       O  0.73138344  0.42455093  0.46373698    -0.64400
Ni2701     Ni  0.77176325  0.04580873  0.43796410     1.34900
C2702       C  0.73784808  0.42454923  0.45406516     0.86700
O2703       O  0.80712671  0.05350644  0.46207342    -0.77300
O2704       O  0.81781266  0.06847869  0.44487104    -0.87600
C2705       C  0.74561895  0.99372645  0.48404419     0.86300
O2706       O  0.75955374  0.07568443  0.44567016    -0.65800
O2707       O  0.66111670  0.40667310  0.46340737    -0.85100
C2708       C  0.74861482  0.07552727  0.45489701     0.87100
C2709       C  0.82780502  0.07150608  0.45447833     1.08700
H2710       H  0.69449163  0.48578912  0.46430309     0.40500
O2711       O  0.71151452  0.47845394  0.46243438    -1.07700
O2712       O  0.72850009  0.43931406  0.44713329    -0.64400
Ni2713     Ni  0.70939974  0.47125519  0.44763237     1.26300
O2714       O  0.74305671  0.05164541  0.46175236    -0.64600
O2715       O  0.66175037  0.43119979  0.44778599    -0.76900
C2716       C  0.70685659  0.49310897  0.42781039     0.86500
O2717       O  0.70784672  0.46839026  0.43278886    -0.64100
Ni2718     Ni  0.70284932  0.43906090  0.47120227     1.27400
Ni2719     Ni  0.75760099  0.01561555  0.46241550     1.26100
H2720       H  0.77046201  0.99746502  0.44637042     0.41100
O2721       O  0.96796484  0.22350962  0.52039849    -0.78900
O2722       O  0.97276430  0.26552303  0.56716461    -0.63600
O2723       O  0.97977596  0.26815036  0.53742710    -1.10200
C2724       C  0.57753546  0.24756170  0.54444938     1.08000
O2725       O  0.52935284  0.29975827  0.56898766    -0.76800
O2726       O  0.57922066  0.31803803  0.55363779    -0.64400
Ni2727     Ni  0.93983562  0.23563587  0.52913994     1.34900
C2728       C  0.57828619  0.32929390  0.54453942     0.86700
O2729       O  0.93364932  0.27216770  0.55219177    -0.77300
O2730       O  0.90746030  0.24443960  0.53711661    -0.87600
C2731       C  0.99826701  0.29141041  0.57187239     0.86300
O2732       O  0.92804358  0.19395537  0.53698561    -0.65800
O2733       O  0.57384377  0.25328860  0.55413313    -0.85100
C2734       C  0.92801226  0.18869153  0.54673626     0.87100
C2735       C  0.90761055  0.25927688  0.54575007     1.08700
H2736       H  0.50264786  0.22792830  0.55269962     0.40500
O2737       O  0.51217228  0.25313590  0.55152544    -1.07700
O2738       O  0.55426388  0.31103606  0.53772490    -0.64400
Ni2739     Ni  0.52026324  0.26000184  0.53681123     1.26300
O2740       O  0.94203686  0.21371568  0.55343455    -0.64600
O2741       O  0.55972987  0.25079290  0.53690641    -0.76900
C2742       C  0.49675158  0.24520225  0.51606056     0.86500
O2743       O  0.52364987  0.26518643  0.52175454    -0.64100
Ni2744     Ni  0.55019661  0.27545536  0.56123686     1.27400
Ni2745     Ni  0.97395480  0.26478650  0.55229974     1.26100
H2746       H  0.98653661  0.29214824  0.53528607     0.41100
O2747       O  0.97136057  0.19184688  0.43044555    -0.78900
O2748       O  0.97689946  0.22569922  0.47793022    -0.63600
O2749       O  0.98901213  0.23771309  0.44812727    -1.10200
C2750       C  0.59266811  0.23472232  0.45389173     1.08000
O2751       O  0.53275998  0.26445723  0.48111422    -0.76800
O2752       O  0.57001952  0.29850979  0.46443228    -0.64400
Ni2753     Ni  0.95091818  0.21596379  0.43837387     1.34900
C2754       C  0.57302670  0.30550050  0.45473729     0.86700
O2755       O  0.94263605  0.24150617  0.46272334    -0.77300
O2756       O  0.92784198  0.23834253  0.44554264    -0.87600
C2757       C  0.00286026  0.24060237  0.48440723     0.86300
O2758       O  0.92173996  0.17288774  0.44579913    -0.65800
O2759       O  0.59359945  0.25039941  0.46241770    -0.85100
C2760       C  0.92250470  0.16122636  0.45485793     0.87100
C2761       C  0.92508625  0.24512784  0.45517632     1.08700
H2762       H  0.51252468  0.20055830  0.46456589     0.40500
O2763       O  0.52030204  0.22503219  0.46270508    -1.07700
O2764       O  0.56138309  0.28156093  0.44766206    -0.64400
Ni2765     Ni  0.52744110  0.23059081  0.44788491     1.26300
O2766       O  0.94595831  0.17962135  0.46181867    -0.64600
O2767       O  0.56572001  0.22052688  0.44786235    -0.76900
C2768       C  0.50528076  0.20750572  0.42802573     0.86500
O2769       O  0.53043347  0.23262420  0.43304982    -0.64100
Ni2770     Ni  0.56050972  0.25569256  0.47122874     1.27400
Ni2771     Ni  0.98098563  0.23059482  0.46283470     1.26100
H2772       H  0.99885338  0.26297130  0.44697653     0.41100
O2773       O  0.55519091  0.13397731  0.31281120    -0.78900
O2774       O  0.59689865  0.13532468  0.26612165    -0.63600
O2775       O  0.59953023  0.14503016  0.29578011    -1.10200
C2776       C  0.58336259  0.24401544  0.28723957     1.08000
O2777       O  0.63572593  0.19263200  0.26389250    -0.76800
O2778       O  0.65396081  0.24312340  0.27905319    -0.64400
Ni2779     Ni  0.56723193  0.10541714  0.30425181     1.34900
C2780       C  0.66389339  0.24246308  0.28835556     0.86700
O2781       O  0.60399438  0.09795852  0.28143178    -0.77300
O2782       O  0.57571858  0.07239960  0.29647341    -0.87600
C2783       C  0.62313867  0.16000186  0.26131440     0.86300
O2784       O  0.52559744  0.09344247  0.29640084    -0.65800
O2785       O  0.59023148  0.23983749  0.27771595    -0.85100
C2786       C  0.52035627  0.09263845  0.28663295     0.87100
C2787       C  0.59074661  0.07212667  0.28792426     1.08700
H2788       H  0.56275960  0.16814013  0.27953757     0.40500
O2789       O  0.58775159  0.17724050  0.28099383    -1.07700
O2790       O  0.64445557  0.21907850  0.29518003    -0.64400
Ni2791     Ni  0.59319482  0.18598103  0.29575007     1.26300
O2792       O  0.54535342  0.10603498  0.27991176    -0.64600
O2793       O  0.58509567  0.22616905  0.29503822    -0.76900
C2794       C  0.57724106  0.16364412  0.31676050     0.86500
O2795       O  0.59728846  0.19013325  0.31090320    -0.64100
Ni2796     Ni  0.61186793  0.21478112  0.27118030     1.27400
Ni2797     Ni  0.59639564  0.13804772  0.28094235     1.26100
H2798       H  0.62355778  0.15218296  0.29798357     0.41100
O2799       O  0.52882616  0.13573197  0.40220825    -0.78900
O2800       O  0.56056939  0.13781228  0.35471659    -0.63600
O2801       O  0.57456466  0.15117236  0.38452075    -1.10200
C2802       C  0.57136795  0.25629999  0.37825424     1.08000
O2803       O  0.60351917  0.19350239  0.35274090    -0.76800
O2804       O  0.63549154  0.23416595  0.36902082    -0.64400
Ni2805     Ni  0.55218925  0.11389917  0.39446830     1.34900
C2806       C  0.64147125  0.23507715  0.37875325     0.86700
O2807       O  0.57503009  0.10184795  0.37015029    -0.77300
O2808       O  0.57371796  0.08949922  0.38749104    -0.87600
C2809       C  0.58030443  0.16429200  0.34881351     0.86300
O2810       O  0.50915701  0.08478607  0.38703449    -0.65800
O2811       O  0.58591305  0.25609053  0.36959526    -0.85100
C2812       C  0.49753228  0.08556519  0.37797189     0.87100
C2813       C  0.57894068  0.08492860  0.37784043     1.08700
H2814       H  0.53698386  0.17650945  0.36815335     0.40500
O2815       O  0.56113152  0.18333656  0.37013032    -1.07700
O2816       O  0.61697174  0.22219471  0.38561846    -0.64400
Ni2817     Ni  0.56591215  0.19031943  0.38494979     1.26300
O2818       O  0.51570416  0.10924074  0.37105511    -0.64600
O2819       O  0.55842982  0.23044062  0.38473845    -0.76900
C2820       C  0.54153337  0.16836259  0.40483070     0.86500
O2821       O  0.56700340  0.19311953  0.39979628    -0.64100
Ni2822     Ni  0.59315876  0.22274360  0.36155167     1.27400
Ni2823     Ni  0.56693823  0.14211131  0.36981910     1.26100
H2824       H  0.59976085  0.16032805  0.38561059     0.41100
O2825       O  0.54965993  0.42061083  0.31446456    -0.78900
O2826       O  0.53526302  0.40043801  0.26516224    -0.63600
O2827       O  0.53477761  0.38975646  0.29473358    -1.10200
C2828       C  0.65541063  0.41692981  0.28806443     1.08000
O2829       O  0.55695373  0.36444368  0.26266209    -0.76800
O2830       O  0.58729220  0.34491684  0.27806792    -0.64400
Ni2831     Ni  0.52175534  0.41890838  0.30279211     1.34900
C2832       C  0.57608770  0.33314868  0.28721230     0.86700
O2833       O  0.98879184  0.38870277  0.28003228    -0.77300
O2834       O  0.99138918  0.42069034  0.29412672    -0.87600
C2835       C  0.53587096  0.37578965  0.26006967     0.86300
O2836       O  0.56055986  0.46164861  0.29734775    -0.65800
O2837       O  0.64623153  0.41039117  0.27838406    -0.85100
C2838       C  0.56427564  0.47036902  0.28773424     0.87100
C2839       C  0.97628337  0.40384599  0.28577310     1.08700
H2840       H  0.59801772  0.43407659  0.27966348     0.40500
O2841       O  0.58328249  0.40868725  0.28074072    -1.07700
O2842       O  0.57074581  0.35095890  0.29430860    -0.64400
Ni2843     Ni  0.58416787  0.40127510  0.29543058     1.26300
O2844       O  0.55041516  0.44742851  0.28036988    -0.64600
O2845       O  0.63403705  0.41398448  0.29547170    -0.76900
C2846       C  0.56982274  0.40859802  0.31702787     0.86500
O2847       O  0.58324618  0.39615863  0.31049584    -0.64100
Ni2848     Ni  0.60104900  0.38841476  0.27092134     1.27400
Ni2849     Ni  0.53452907  0.39646388  0.27993016     1.26100
H2850       H  0.51901453  0.36493005  0.29644621     0.41100
O2851       O  0.60949394  0.46661145  0.40244477    -0.78900
O2852       O  0.57618819  0.42981027  0.35497266    -0.63600
O2853       O  0.58008310  0.42055561  0.38477807    -1.10200
C2854       C  0.68835260  0.42581164  0.37972648     1.08000
O2855       O  0.60733528  0.40291468  0.35086165    -0.76800
O2856       O  0.59998697  0.36464881  0.36826028    -0.64400
Ni2857     Ni  0.56443329  0.44279130  0.39461202     1.34900
C2858       C  0.59752079  0.35714562  0.37794553     0.86700
O2859       O  0.52778835  0.41452017  0.37052631    -0.77300
O2860       O  0.51834416  0.42103451  0.38764941    -0.87600
C2861       C  0.58778050  0.41571967  0.34840335     0.86300
O2862       O  0.57832117  0.48564946  0.38707187    -0.65800
O2863       O  0.67159849  0.40709789  0.37185612    -0.85100
C2864       C  0.58790196  0.49587373  0.37771341     0.87100
C2865       C  0.50772499  0.41318294  0.37811449     1.08700
H2866       H  0.64219351  0.46155364  0.36823161     0.40500
O2867       O  0.62639819  0.43699502  0.37021691    -1.07700
O2868       O  0.61207529  0.38089959  0.38506281    -0.64400
Ni2869     Ni  0.62865145  0.43198174  0.38506508     1.26300
O2870       O  0.59166063  0.47681326  0.37070355    -0.64600
O2871       O  0.67752297  0.44336735  0.38498896    -0.76900
C2872       C  0.63016443  0.45468774  0.40497205     0.86500
O2873       O  0.63003179  0.42966457  0.39986939    -0.64100
Ni2874     Ni  0.63762068  0.40656847  0.36210544     1.27400
Ni2875     Ni  0.57727875  0.42627912  0.37004888     1.26100
H2876       H  0.56516479  0.39536365  0.38615436     0.41100
O2877       O  0.86062169  0.42265246  0.31275170    -0.78900
O2878       O  0.85448368  0.45857866  0.26592375    -0.63600
O2879       O  0.84832267  0.45504620  0.29567818    -1.10200
C2880       C  0.74989921  0.33871808  0.28859909     1.08000
O2881       O  0.79674753  0.43926597  0.26426071    -0.76800
O2882       O  0.74758981  0.40777846  0.27976963    -0.64400
Ni2883     Ni  0.88852061  0.46273013  0.30389376     1.34900
C2884       C  0.74956257  0.42101950  0.28877227     0.86700
O2885       O  0.89279871  0.00624312  0.28129953    -0.77300
O2886       O  0.91910358  0.00435300  0.29632938    -0.87600
C2887       C  0.82898234  0.45922750  0.26129310     0.86300
O2888       O  0.90058771  0.43291587  0.29612255    -0.65800
O2889       O  0.75316070  0.34827264  0.27894604    -0.85100
C2890       C  0.90077703  0.42786706  0.28636520     0.87100
C2891       C  0.91880925  0.01922205  0.28773350     1.08700
H2892       H  0.82370837  0.39339490  0.28020854     0.40500
O2893       O  0.81460734  0.40938056  0.28147124    -1.07700
O2894       O  0.77393137  0.42653223  0.29548060    -0.64400
Ni2895     Ni  0.80713664  0.40809534  0.29623067     1.26300
O2896       O  0.88585959  0.43802276  0.27969211    -0.64600
O2897       O  0.76717601  0.35981236  0.29617050    -0.76900
C2898       C  0.83125182  0.41509006  0.31693085     0.86500
O2899       O  0.80454472  0.40966858  0.31134197    -0.64100
Ni2900     Ni  0.77618202  0.39411635  0.27194325     1.27400
Ni2901     Ni  0.85374236  0.45704895  0.28079521     1.26100
H2902       H  0.84164487  0.47236668  0.29778989     0.41100
O2903       O  0.86346725  0.38751429  0.40199988    -0.78900
O2904       O  0.85640853  0.41611229  0.35464925    -0.63600
O2905       O  0.84598603  0.41682850  0.38451834    -1.10200
C2906       C  0.74180514  0.30697194  0.37922579     1.08000
O2907       O  0.79944069  0.39976156  0.35274110    -0.76800
O2908       O  0.76021951  0.39109127  0.36946225    -0.64400
Ni2909     Ni  0.88437166  0.43220454  0.39411152     1.34900
C2910       C  0.76036740  0.39720913  0.37916908     0.86700
O2911       O  0.89278168  0.46666514  0.36979504    -0.77300
O2912       O  0.90799117  0.47771185  0.38696826    -0.87600
C2913       C  0.82965430  0.40909952  0.34885191     0.86300
O2914       O  0.91230481  0.41744830  0.38644663    -0.65800
O2915       O  0.74107111  0.32053402  0.37044708    -0.85100
C2916       C  0.91079524  0.40501635  0.37735272     0.87100
C2917       C  0.91070550  0.48750972  0.37735816     1.08700
H2918       H  0.82065157  0.35345926  0.36841193     0.40500
O2919       O  0.81321224  0.37033740  0.37036858    -1.07700
O2920       O  0.77492714  0.38725654  0.38599635    -0.64400
Ni2921     Ni  0.80749402  0.36891778  0.38525636     1.26300
O2922       O  0.88722043  0.40049173  0.37051578    -0.64600
O2923       O  0.76809458  0.32098482  0.38552495    -0.76900
C2924       C  0.83113545  0.36772994  0.40486284     0.86500
O2925       O  0.80596906  0.36840029  0.40008370    -0.64100
Ni2926     Ni  0.77259404  0.36079755  0.36203994     1.27400
Ni2927     Ni  0.85345080  0.41791051  0.36975032     1.26100
H2928       H  0.83665768  0.43263010  0.38577017     0.41100
O2929       O  0.92195762  0.36179467  0.18633566    -0.78900
O2930       O  0.95893068  0.36044421  0.23307419    -0.63600
O2931       O  0.95486623  0.35155220  0.20341552    -1.10200
C2932       C  0.83947306  0.25134529  0.21115124     1.08000
O2933       O  0.94135235  0.30323596  0.23506963    -0.76800
O2934       O  0.91001374  0.25262042  0.21990694    -0.64400
Ni2935     Ni  0.96264041  0.39092024  0.19479062     1.34900
C2936       C  0.92228133  0.25397940  0.21079640     0.86700
O2937       O  0.50303166  0.39783433  0.21762892    -0.77300
O2938       O  0.50289106  0.42240669  0.20209636    -0.87600
C2939       C  0.96083384  0.33578988  0.23780664     0.86300
O2940       O  0.93324794  0.40400256  0.20233985    -0.65800
O2941       O  0.84955222  0.25596295  0.22077624    -0.85100
C2942       C  0.92683403  0.40371258  0.21201776     0.87100
C2943       C  0.51687663  0.42308517  0.21094837     1.08700
H2944       H  0.89323378  0.32710366  0.21900720     0.40500
O2945       O  0.90963036  0.31846721  0.21779538    -1.07700
O2946       O  0.92728722  0.27781027  0.20400682    -0.64400
Ni2947     Ni  0.90798571  0.30989539  0.20309327     1.26300
O2948       O  0.93690393  0.38939748  0.21891012    -0.64600
O2949       O  0.85991186  0.26890349  0.20344916    -0.76900
C2950       C  0.91569321  0.33268675  0.18227287     0.86500
O2951       O  0.90955499  0.30610903  0.18802057    -0.64100
Ni2952     Ni  0.89575153  0.28093595  0.22758679     1.27400
Ni2953     Ni  0.95708531  0.35828630  0.21822302     1.26100
H2954       H  0.97229251  0.34483952  0.20146559     0.41100
O2955       O  0.89279854  0.36005136  0.09717661    -0.78900
O2956       O  0.92402232  0.35860563  0.14451159    -0.63600
O2957       O  0.92370277  0.34513360  0.11478446    -1.10200
C2958       C  0.81457147  0.23996179  0.12130162     1.08000
O2959       O  0.91089688  0.30277358  0.14639673    -0.76800
O2960       O  0.89936193  0.26008379  0.13045824    -0.64400
Ni2961     Ni  0.93822218  0.38237268  0.10484409     1.34900
C2962       C  0.90539641  0.25987165  0.12076497     0.86700
O2963       O  0.97384208  0.39435660  0.12909690    -0.77300
O2964       O  0.98432211  0.40729942  0.11177522    -0.87600
C2965       C  0.91765332  0.33217668  0.15035279     0.86300
O2966       O  0.92423057  0.41130845  0.11231646    -0.65800
O2967       O  0.82858769  0.24070249  0.13015473    -0.85100
C2968       C  0.91269551  0.41089688  0.12147660     0.87100
C2969       C  0.99435738  0.41175894  0.12141013     1.08700
H2970       H  0.86109237  0.32020417  0.13111657     0.40500
O2971       O  0.87824087  0.31307547  0.12920791    -1.07700
O2972       O  0.89540162  0.27415963  0.11386845    -0.64400
Ni2973     Ni  0.87595381  0.30576487  0.11442056     1.26300
O2974       O  0.90746044  0.38731175  0.12838676    -0.64600
O2975       O  0.82835090  0.26529072  0.11463228    -0.76900
C2976       C  0.87300965  0.32731513  0.09461073     0.86500
O2977       O  0.87433970  0.30281979  0.09960060    -0.64100
Ni2978     Ni  0.87018290  0.27375131  0.13793275     1.27400
Ni2979     Ni  0.92548347  0.35418848  0.12946479     1.26100
H2980       H  0.93980811  0.33609823  0.11364586     0.41100
O2981       O  0.62831169  0.07318163  0.18443543    -0.78900
O2982       O  0.63508220  0.09517224  0.23375301    -0.63600
O2983       O  0.64424482  0.10511336  0.20410919    -1.10200
C2984       C  0.73822282  0.07901886  0.21083882     1.08000
O2985       O  0.69276803  0.13211935  0.23593801    -0.76800
O2986       O  0.74264942  0.15085956  0.22048882    -0.64400
Ni2987     Ni  0.60214933  0.07561666  0.19605791     1.34900
C2988       C  0.74281628  0.16247140  0.21134210     0.86700
O2989       O  0.60044637  0.11043745  0.21945657    -0.77300
O2990       O  0.56920511  0.07524175  0.20622938    -0.87600
C2991       C  0.66042900  0.12029412  0.23870952     0.86300
O2992       O  0.59811966  0.03306443  0.20165545    -0.65800
O2993       O  0.73536491  0.08525743  0.22051590    -0.85100
C2994       C  0.59339191  0.02453064  0.21127792     0.87100
C2995       C  0.57180502  0.09370109  0.21423918     1.08700
H2996       H  0.66406556  0.06162532  0.21919971     0.40500
O2997       O  0.67448425  0.08697725  0.21809065    -1.07700
O2998       O  0.71903954  0.14466892  0.20439289    -0.64400
Ni2999     Ni  0.68249594  0.09419092  0.20340566     1.26300
O3000       O  0.60284593  0.04757325  0.21862714    -0.64600
O3001       O  0.72003177  0.08211574  0.20338777    -0.76900
C3002       C  0.66055630  0.08551789  0.18185662     0.86500
O3003       O  0.68648672  0.09897302  0.18835606    -0.64100
Ni3004     Ni  0.71266452  0.10775662  0.22783740     1.27400
Ni3005     Ni  0.63766201  0.09865464  0.21895173     1.26100
H3006       H  0.65304887  0.12988196  0.20237056     0.41100
O3007       O  0.64007561  0.02984201  0.09626279    -0.78900
O3008       O  0.64624360  0.06362618  0.14403233    -0.63600
O3009       O  0.65764462  0.07502799  0.11422265    -1.10200
C3010       C  0.76106841  0.06978008  0.11815520     1.08000
O3011       O  0.70445576  0.09023958  0.14792422    -0.76800
O3012       O  0.73437852  0.13014860  0.13062953    -0.64400
Ni3013     Ni  0.61905533  0.05291697  0.10458279     1.34900
C3014       C  0.73922366  0.13855166  0.12099778     0.86700
O3015       O  0.61199434  0.07956239  0.12905874    -0.77300
O3016       O  0.59489398  0.07390805  0.11205512    -0.87600
C3017       C  0.67216724  0.07739662  0.15052242     0.86300
O3018       O  0.59106611  0.00947059  0.11197077    -0.65800
O3019       O  0.76360584  0.08828092  0.12614629    -0.85100
C3020       C  0.59042174  0.49741824  0.12140026     0.87100
C3021       C  0.59279592  0.08132619  0.12168550     1.08700
H3022       H  0.68016133  0.03326768  0.13005614     0.40500
O3023       O  0.68864966  0.05794431  0.12827310    -1.07700
O3024       O  0.72949092  0.11533548  0.11367196    -0.64400
Ni3025     Ni  0.69498438  0.06402327  0.11341498     1.26300
O3026       O  0.61442838  0.01754122  0.12816023    -0.64600
O3027       O  0.73243019  0.05269315  0.11297644    -0.76900
C3028       C  0.67255295  0.04187641  0.09356369     0.86500
O3029       O  0.69762857  0.06709126  0.09858118    -0.64100
Ni3030     Ni  0.73065321  0.08782954  0.13630639     1.27400
Ni3031     Ni  0.65002714  0.06820284  0.12897706     1.26100
H3032       H  0.66766441  0.10028134  0.11300753     0.41100
O3033       O  0.93452595  0.07081393  0.18581641    -0.78900
O3034       O  0.89284591  0.03565223  0.23313152    -0.63600
O3035       O  0.89104046  0.04053016  0.20336524    -1.10200
C3036       C  0.91228121  0.15790993  0.21068709     1.08000
O3037       O  0.85670983  0.05757618  0.23508568    -0.76800
O3038       O  0.84006130  0.08960916  0.21949467    -0.64400
Ni3039     Ni  0.92408269  0.03295371  0.19542692     1.34900
C3040       C  0.82856834  0.07611675  0.21052000     0.86700
O3041       O  0.88445812  0.48861850  0.21841378    -0.77300
O3042       O  0.91308572  0.49009494  0.20355556    -0.87600
C3043       C  0.86772796  0.03645873  0.23792695     0.86300
O3044       O  0.96518276  0.06555768  0.20311486    -0.65800
O3045       O  0.90603757  0.14834245  0.22033246    -0.85100
C3046       C  0.96998491  0.06741784  0.21292797     0.87100
C3047       C  0.89791558  0.47558024  0.21217669     1.08700
H3048       H  0.92976971  0.10140605  0.21902162     0.40500
O3049       O  0.90453501  0.08624181  0.21773781    -1.07700
O3050       O  0.84710424  0.07035847  0.20380750    -0.64400
Ni3051     Ni  0.89830551  0.08795995  0.20294965     1.26300
O3052       O  0.94444013  0.05438025  0.21948939    -0.64600
O3053       O  0.90778755  0.13667121  0.20309408    -0.76900
C3054       C  0.91312443  0.07957341  0.18197298     0.86500
O3055       O  0.89340006  0.08645628  0.18783027    -0.64100
Ni3056     Ni  0.88225327  0.10250449  0.22731533     1.27400
Ni3057     Ni  0.89372294  0.03779434  0.21826401     1.26100
H3058       H  0.86711569  0.02365717  0.20107912     0.41100
O3059       O  0.97389757  0.10516865  0.09697494    -0.78900
O3060       O  0.93689442  0.07699049  0.14435045    -0.63600
O3061       O  0.92660739  0.07677352  0.11439332    -1.10200
C3062       C  0.93158317  0.18600617  0.11994273     1.08000
O3063       O  0.89438018  0.09079964  0.14574193    -0.76800
O3064       O  0.86515060  0.09979370  0.12877916    -0.64400
Ni3065     Ni  0.94880717  0.06042885  0.10484821     1.34900
C3066       C  0.86050287  0.09580880  0.11897455     0.86700
O3067       O  0.92368207  0.02668182  0.12916775    -0.77300
O3068       O  0.92564999  0.01475474  0.11196170    -0.87600
C3069       C  0.91610170  0.08316847  0.14994848     0.86300
O3070       O  0.99108164  0.07382226  0.11262642    -0.65800
O3071       O  0.91540467  0.17098100  0.12839691    -0.85100
C3072       C  0.00255551  0.08699605  0.12162808     0.87100
C3073       C  0.91977705  0.00541443  0.12163444     1.08700
H3074       H  0.96332342  0.13956474  0.13089175     0.40500
O3075       O  0.93938221  0.12256051  0.12865266    -1.07700
O3076       O  0.88597535  0.10740084  0.11242806    -0.64400
Ni3077     Ni  0.93669546  0.12506609  0.11375404     1.26300
O3078       O  0.98407624  0.09287074  0.12837547    -0.64600
O3079       O  0.94549094  0.17316016  0.11378778    -0.76900
C3080       C  0.96272058  0.12612269  0.09409941     0.86500
O3081       O  0.93761945  0.12696770  0.09888905    -0.64100
Ni3082     Ni  0.90656021  0.13034865  0.13667020     1.27400
Ni3083     Ni  0.93265725  0.07526432  0.12919240     1.26100
H3084       H  0.90140472  0.06133695  0.11313250     0.41100
O3085       O  0.77486898  0.29804160  0.06938497    -0.78900
O3086       O  0.74600260  0.26456093  0.02184531    -0.63600
O3087       O  0.74693517  0.25276504  0.05158012    -1.10200
C3088       C  0.85661472  0.25954063  0.04727472     1.08000
O3089       O  0.77762567  0.23807756  0.01782238    -0.76800
O3090       O  0.77047589  0.19856197  0.03483246    -0.64400
Ni3091     Ni  0.73024937  0.27406487  0.06139196     1.34900
C3092       C  0.76582647  0.18993324  0.04444446     0.86700
O3093       O  0.69613469  0.24812553  0.03702360    -0.77300
O3094       O  0.68471782  0.25213597  0.05416042    -0.87600
C3095       C  0.75790961  0.25067069  0.01531294     0.86300
O3096       O  0.74396792  0.31729948  0.05407569    -0.65800
O3097       O  0.84152148  0.24242547  0.03900692    -0.85100
C3098       C  0.75516397  0.32871968  0.04490461     0.87100
C3099       C  0.67517133  0.24552770  0.04451178     1.08700
H3100       H  0.81072143  0.29535776  0.03578335     0.40500
O3101       O  0.79481989  0.27053503  0.03746367    -1.07700
O3102       O  0.77862760  0.21278466  0.05187234    -0.64400
Ni3103     Ni  0.79536421  0.26396439  0.05230358     1.26300
O3104       O  0.76014778  0.31047999  0.03787767    -0.64600
O3105       O  0.84421346  0.27526739  0.05274668    -0.76900
C3106       C  0.79544660  0.28616686  0.07204959     0.86500
O3107       O  0.79498981  0.26064143  0.06712193    -0.64100
Ni3108     Ni  0.80768186  0.24172538  0.02915780     1.27400
Ni3109     Ni  0.74569057  0.25988148  0.03689741     1.26100
H3110       H  0.73184397  0.22744577  0.05272534     0.41100
O3111       O  0.72091514  0.25737028  0.98135941    -0.78900
O3112       O  0.70683571  0.23741676  0.93195019    -0.63600
O3113       O  0.70531917  0.22685146  0.96157359    -1.10200
C3114       C  0.82457822  0.24968349  0.95498130     1.08000
O3115       O  0.72604582  0.19920807  0.92978980    -0.76800
O3116       O  0.75554371  0.17883892  0.94515355    -0.64400
Ni3117     Ni  0.69386396  0.25715734  0.96963781     1.34900
C3118       C  0.74381061  0.16727387  0.95426838     0.86700
O3119       O  0.65714524  0.22387598  0.94622601    -0.77300
O3120       O  0.66283968  0.25992783  0.95938385    -0.87600
C3121       C  0.70610521  0.21172084  0.92704756     0.86300
O3122       O  0.73382784  0.29891476  0.96424568    -0.65800
O3123       O  0.81539379  0.24339374  0.94530448    -0.85100
C3124       C  0.73744306  0.30786586  0.95465873     0.87100
C3125       C  0.64635697  0.24165714  0.95141871     1.08700
H3126       H  0.76931004  0.26915549  0.94658686     0.40500
O3127       O  0.75372349  0.24388108  0.94766079    -1.07700
O3128       O  0.73871702  0.18549763  0.96127857    -0.64400
Ni3129     Ni  0.75407594  0.23630977  0.96234157     1.26300
O3130       O  0.72352120  0.28517305  0.94722852    -0.64600
O3131       O  0.80341049  0.24713468  0.96241031    -0.76900
C3132       C  0.74007115  0.24419150  0.98392806     0.86500
O3133       O  0.75280022  0.23107806  0.97739565    -0.64100
Ni3134     Ni  0.77027326  0.22233070  0.93790955     1.27400
Ni3135     Ni  0.70566147  0.23379797  0.94675430     1.26100
H3136       H  0.68875193  0.20218682  0.96326064     0.41100
O3137       O  0.53354682  0.22373395  0.06848525    -0.78900
O3138       O  0.52746075  0.25357246  0.02123191    -0.63600
O3139       O  0.51642171  0.25382588  0.05113304    -1.10200
C3140       C  0.91052780  0.14472564  0.04439566     1.08000
O3141       O  0.97170063  0.24203554  0.01939794    -0.76800
O3142       O  0.93324177  0.23292951  0.03628428    -0.64400
Ni3143     Ni  0.55446995  0.26888713  0.06079008     1.34900
C3144       C  0.93112585  0.23481241  0.04612550     0.86700
O3145       O  0.56458736  0.30337926  0.03653858    -0.77300
O3146       O  0.57785416  0.31474304  0.05381334    -0.87600
C3147       C  0.50080571  0.24802842  0.01558698     0.86300
O3148       O  0.58311236  0.25508589  0.05304343    -0.65800
O3149       O  0.90981010  0.16109155  0.03617172    -0.85100
C3150       C  0.58126185  0.24188298  0.04403772     0.87100
C3151       C  0.58160947  0.32434698  0.04415944     1.08700
H3152       H  0.98938793  0.19066710  0.03369942     0.40500
O3153       O  0.98275633  0.20770495  0.03614216    -1.07700
O3154       O  0.94377017  0.22145144  0.05251467    -0.64400
Ni3155     Ni  0.97678325  0.20367926  0.05099264     1.26300
O3156       O  0.55710025  0.23647018  0.03727830    -0.64600
O3157       O  0.93739832  0.15594155  0.05045197    -0.76900
C3158       C  0.00049565  0.19997128  0.07060843     0.86500
O3159       O  0.97499376  0.20006595  0.06582234    -0.64100
Ni3160     Ni  0.94286182  0.20198135  0.02814269     1.27400
Ni3161     Ni  0.52435816  0.25528215  0.03637198     1.26100
H3162       H  0.50739353  0.26989296  0.05235500     0.41100
O3163       O  0.53016964  0.25855097  0.97939304    -0.78900
O3164       O  0.52369935  0.29570575  0.93268520    -0.63600
O3165       O  0.51643541  0.29016031  0.96237014    -1.10200
C3166       C  0.91989498  0.17243435  0.95457422     1.08000
O3167       O  0.96587772  0.27359857  0.93038996    -0.76800
O3168       O  0.91716840  0.24166918  0.94601461    -0.64400
Ni3169     Ni  0.55712167  0.29888102  0.97051675     1.34900
C3170       C  0.91878914  0.25400985  0.95513901     0.86700
O3171       O  0.56071242  0.34172492  0.94767552    -0.77300
O3172       O  0.58838918  0.34027188  0.96242920    -0.87600
C3173       C  0.49796320  0.29543892  0.92796425     0.86300
O3174       O  0.57021589  0.27004786  0.96255828    -0.65800
O3175       O  0.92312966  0.18242487  0.94497060    -0.85100
C3176       C  0.57123018  0.26641357  0.95273740     0.87100
C3177       C  0.58729682  0.35492083  0.95388619     1.08700
H3178       H  0.99429793  0.22856296  0.94621832     0.40500
O3179       O  0.98447198  0.24385261  0.94762211    -1.07700
O3180       O  0.94300076  0.25916511  0.96184078    -0.64400
Ni3181     Ni  0.97681070  0.24164217  0.96243085     1.26300
O3182       O  0.55618843  0.27685070  0.94621759    -0.64600
O3183       O  0.93738981  0.19309339  0.96220001    -0.76900
C3184       C  0.00072296  0.24937201  0.98328211     0.86500
O3185       O  0.97388463  0.24268528  0.97755747    -0.64100
Ni3186     Ni  0.94590775  0.22843138  0.93807820     1.27400
Ni3187     Ni  0.52216318  0.29335503  0.94750083     1.26100
H3188       H  0.50881845  0.30664226  0.96461675     0.41100
O3189       O  0.69749660  0.46895019  0.06859516    -0.78900
O3190       O  0.73319977  0.47214628  0.02164368    -0.63600
O3191       O  0.74499855  0.48516204  0.05142017    -1.10200
C3192       C  0.73695288  0.08817233  0.04386997     1.08000
O3193       O  0.77270990  0.02621758  0.01948726    -0.76800
O3194       O  0.80226830  0.07202119  0.03474628    -0.64400
Ni3195     Ni  0.72175880  0.44749673  0.06121945     1.34900
C3196       C  0.80960343  0.07123319  0.04430179     0.86700
O3197       O  0.74611503  0.43574999  0.03719193    -0.77300
O3198       O  0.74385733  0.42319510  0.05453121    -0.87600
C3199       C  0.75327791  0.49877682  0.01586840     0.86300
O3200       O  0.67950698  0.41855545  0.05346301    -0.65800
O3201       O  0.74779350  0.08652069  0.03470770    -0.85100
C3202       C  0.66858292  0.41989969  0.04434996     0.87100
C3203       C  0.74920585  0.41842904  0.04491394     1.08700
H3204       H  0.70475821  0.00779773  0.03463223     0.40500
O3205       O  0.72931712  0.01557993  0.03636872    -1.07700
O3206       O  0.78623014  0.05511684  0.05134978    -0.64400
Ni3207     Ni  0.73510862  0.02356680  0.05110703     1.26300
O3208       O  0.68725047  0.44387272  0.03758745    -0.64600
O3209       O  0.72815877  0.06410385  0.05085723    -0.76900
C3210       C  0.71047442  0.00227604  0.07087157     0.86500
O3211       O  0.73662014  0.02677803  0.06595180    -0.64100
Ni3212     Ni  0.75875905  0.05458561  0.02733395     1.27400
Ni3213     Ni  0.73849100  0.47632192  0.03671177     1.26100
H3214       H  0.77011333  0.49439715  0.05269941     0.41100
O3215       O  0.72477237  0.46927175  0.98006153    -0.78900
O3216       O  0.76206792  0.46928647  0.93335475    -0.63600
O3217       O  0.76771713  0.47981999  0.96291294    -1.10200
C3218       C  0.75083239  0.07834222  0.95414364     1.08000
O3219       O  0.80173662  0.02669956  0.93027753    -0.76800
O3220       O  0.82114031  0.07779095  0.94534366    -0.64400
Ni3221     Ni  0.73645656  0.44034016  0.97157026     1.34900
C3222       C  0.83210076  0.07718958  0.95451789     0.86700
O3223       O  0.77177707  0.43316781  0.94849062    -0.77300
O3224       O  0.74531405  0.40754888  0.96374842    -0.87600
C3225       C  0.78801013  0.49390555  0.92846152     0.86300
O3226       O  0.69382992  0.42720694  0.96405673    -0.65800
O3227       O  0.75688205  0.07393078  0.94455172    -0.85100
C3228       C  0.68776215  0.42662701  0.95434558     0.87100
C3229       C  0.76008456  0.40771022  0.95508657     1.08700
H3230       H  0.73018257  0.00260033  0.94651677     0.40500
O3231       O  0.75532023  0.01182071  0.94775278    -1.07700
O3232       O  0.81327600  0.05408233  0.96147555    -0.64400
Ni3233     Ni  0.76212240  0.02107488  0.96245437     1.26300
O3234       O  0.71220170  0.44003287  0.94747179    -0.64600
O3235       O  0.75373002  0.06104982  0.96189738    -0.76900
C3236       C  0.74735519  0.99905321  0.98334611     0.86500
O3237       O  0.76747365  0.02566351  0.97755716    -0.64100
Ni3238     Ni  0.77831921  0.04898552  0.93778917     1.27400
Ni3239     Ni  0.76315284  0.47247832  0.94813936     1.26100
H3240       H  0.79198287  0.48716376  0.96489963     0.41100
C3241       C  0.74903683  0.00033189  0.99461775    -0.11300
C3242       C  0.75078057  0.49750691  0.00462238    -0.12800
C3243       C  0.89344803  0.13581468  0.95682034    -0.11300
C3244       C  0.86710172  0.10643101  0.95700403    -0.12800
C3245       C  0.61959322  0.38666280  0.95108465    -0.11300
C3246       C  0.65104487  0.40808761  0.95119761    -0.12800
C3247       C  0.87786167  0.11311549  0.04700989    -0.11300
C3248       C  0.84659459  0.09110926  0.04707398    -0.12800
C3249       C  0.60789696  0.36094069  0.04186158    -0.11300
C3250       C  0.63390114  0.39053301  0.04170274    -0.12800
C3251       C  0.99890749  0.24778576  0.99455272    -0.11300
C3252       C  0.50190716  0.24870805  0.00427149    -0.12800
C3253       C  0.86078555  0.25837030  0.95751693    -0.11300
C3254       C  0.88976394  0.26023336  0.95777313    -0.12800
C3255       C  0.61511576  0.24317198  0.94844196    -0.11300
C3256       C  0.59229813  0.25140195  0.94901679    -0.12800
C3257       C  0.74161279  0.10573532  0.95624687    -0.11300
C3258       C  0.73866263  0.13221767  0.95656114    -0.12800
C3259       C  0.75417743  0.34528956  0.95242466    -0.11300
C3260       C  0.76127301  0.37599130  0.95262529    -0.12800
C3261       C  0.88818889  0.25890292  0.05036098    -0.11300
C3262       C  0.91099499  0.25066818  0.04993618    -0.12800
C3263       C  0.63885532  0.23661920  0.04202936    -0.11300
C3264       C  0.60998668  0.23497146  0.04162289    -0.12800
C3265       C  0.73808849  0.12098827  0.04648807    -0.11300
C3266       C  0.74771187  0.15240335  0.04675040    -0.12800
C3267       C  0.75766842  0.39050354  0.04278429    -0.11300
C3268       C  0.76010139  0.36370428  0.04256809    -0.12800
C3269       C  0.74678156  0.24509860  0.99495312    -0.11300
C3270       C  0.74989101  0.24848577  0.00435025    -0.12800
C3271       C  0.98009442  0.15136956  0.08567157    -0.11300
C3272       C  0.99182078  0.17416488  0.07891965    -0.12800
C3273       C  0.91301301  0.08196748  0.17069859    -0.11300
C3274       C  0.91551541  0.08133061  0.16124522    -0.12800
C3275       C  0.56572955  0.09065875  0.12428620    -0.11300
C3276       C  0.53906292  0.09333317  0.12472099    -0.12800
C3277       C  0.82433211  0.07923618  0.11533178    -0.11300
C3278       C  0.79319660  0.07053765  0.11499724    -0.12800
C3279       C  0.68182009  0.02477234  0.08533083    -0.11300
C3280       C  0.69349988  0.01253055  0.07888933    -0.12800
C3281       C  0.66627314  0.08327176  0.17087882    -0.11300
C3282       C  0.66638044  0.07943593  0.16150622    -0.12800
C3283       C  0.76554882  0.07020232  0.20831404    -0.11300
C3284       C  0.79296733  0.06900141  0.20804462    -0.12800
C3285       C  0.53975781  0.09342788  0.21732284    -0.11300
C3286       C  0.50876615  0.08544282  0.21690360    -0.12800
C3287       C  0.90844547  0.44104408  0.12401082    -0.11300
C3288       C  0.91292180  0.47101425  0.12383610    -0.12800
C3289       C  0.92269874  0.24047322  0.11761048    -0.11300
C3290       C  0.93158773  0.21817934  0.11730201    -0.12800
C3291       C  0.53088350  0.43647613  0.12376850    -0.11300
C3292       C  0.56049170  0.46270919  0.12398037    -0.12800
C3293       C  0.78254238  0.20720778  0.11873624    -0.11300
C3294       C  0.75980139  0.17602914  0.11858568    -0.12800
C3295       C  0.84626818  0.31689115  0.08647725    -0.11300
C3296       C  0.82231312  0.30395418  0.08007771    -0.12800
C3297       C  0.57142946  0.48692331  0.21361514    -0.11300
C3298       C  0.54888225  0.45572857  0.21351494    -0.12800
C3299       C  0.77341784  0.19707369  0.20892122    -0.11300
C3300       C  0.80297081  0.22351863  0.20902695    -0.12800
C3301       C  0.89896035  0.44407852  0.21503015    -0.11300
C3302       C  0.90875757  0.42245149  0.21508151    -0.12800
C3303       C  0.92766518  0.22459752  0.20817611    -0.11300
C3304       C  0.92359156  0.19478662  0.20836546    -0.12800
C3305       C  0.91792692  0.33412317  0.16159368    -0.11300
C3306       C  0.91574399  0.33122071  0.17102517    -0.12800
C3307       C  0.83753243  0.48508125  0.25299987    -0.11300
C3308       C  0.85013539  0.01097812  0.24629958    -0.12800
C3309       C  0.83221469  0.41221460  0.33761881    -0.11300
C3310       C  0.82955687  0.41239585  0.32818031    -0.12800
C3311       C  0.93943422  0.39824034  0.37488497    -0.11300
C3312       C  0.96848078  0.40046696  0.37528635    -0.12800
C3313       C  0.74127745  0.41475935  0.38242008    -0.11300
C3314       C  0.71955952  0.42442424  0.38270192    -0.12800
C3315       C  0.69178120  0.42609465  0.29068496    -0.11300
C3316       C  0.72073891  0.42787589  0.29119865    -0.12800
C3317       C  0.94434229  0.40402274  0.28281749    -0.11300
C3318       C  0.92121981  0.41186680  0.28295532    -0.12800
C3319       C  0.57972040  0.41359187  0.33744678    -0.11300
C3320       C  0.57677717  0.41003687  0.32804975    -0.09200
C3321       C  0.50954213  0.35843300  0.25191239    -0.11300
C3322       C  0.98766929  0.34558942  0.24586805    -0.12800
C3323       C  0.93820492  0.02528378  0.37492280    -0.11300
C3324       C  0.96455536  0.05470001  0.37483317    -0.12800
C3325       C  0.70951683  0.27535664  0.38211795    -0.11300
C3326       C  0.67814077  0.25367819  0.38194829    -0.12800
C3327       C  0.59215808  0.03175170  0.37550257    -0.11300
C3328       C  0.58854623  0.05786127  0.37565500    -0.12800
C3329       C  0.58054772  0.32004386  0.38067942    -0.11300
C3330       C  0.57201691  0.28891602  0.38077274    -0.12800
C3331       C  0.98281414  0.07257355  0.28496485    -0.11300
C3332       C  0.95137179  0.05101012  0.28508397    -0.12800
C3333       C  0.69827879  0.27216427  0.29112616    -0.11300
C3334       C  0.72396937  0.30200065  0.29095678    -0.12800
C3335       C  0.59010074  0.03937979  0.28551497    -0.11300
C3336       C  0.58120165  0.00811547  0.28556512    -0.12800
C3337       C  0.57451865  0.27176072  0.28920441    -0.11300
C3338       C  0.57163541  0.29829812  0.28943897    -0.12800
C3339       C  0.57839691  0.16565759  0.32805904    -0.11300
C3340       C  0.57782349  0.16265155  0.33752102    -0.12800
C3341       C  0.64020120  0.15003618  0.25332320    -0.11300
C3342       C  0.65165605  0.13768129  0.24689632    -0.12800
C3343       C  0.51431233  0.19040484  0.41977854    -0.11300
C3344       C  0.52539960  0.17824138  0.41315741    -0.12800
C3345       C  0.49859032  0.24519547  0.50484934    -0.11300
C3346       C  0.99725888  0.24180254  0.49548980    -0.12800
C3347       C  0.61546256  0.37367894  0.45190307    -0.11300
C3348       C  0.59299902  0.34250823  0.45190364    -0.12800
C3349       C  0.89333050  0.12569722  0.45713375    -0.11300
C3350       C  0.86433036  0.09865124  0.45678762    -0.12800
C3351       C  0.65655907  0.47149085  0.41317233    -0.11300
C3352       C  0.68024339  0.48328309  0.41966503    -0.12800
C3353       C  0.74988421  0.49633071  0.50441535    -0.11300
C3354       C  0.75261099  0.99948136  0.49509764    -0.12800
C3355       C  0.63791459  0.38980119  0.54221994    -0.11300
C3356       C  0.60818183  0.36389253  0.54199918    -0.12800
C3357       C  0.88743557  0.12073891  0.55004960    -0.11300
C3358       C  0.90916265  0.15214754  0.55008880    -0.12800
C3359       C  0.87333458  0.25997750  0.45761734    -0.11300
C3360       C  0.89923526  0.25610877  0.45751545    -0.12800
C3361       C  0.62508887  0.23567345  0.45094855    -0.11300
C3362       C  0.65629734  0.24459438  0.45076497    -0.12800
C3363       C  0.74853494  0.13566580  0.45725908    -0.11300
C3364       C  0.74483380  0.10596887  0.45749641    -0.12800
C3365       C  0.76459432  0.38318712  0.45080205    -0.11300
C3366       C  0.75518984  0.40510313  0.45099152    -0.12800
C3367       C  0.81030614  0.31787140  0.41948317    -0.11300
C3368       C  0.82203044  0.34159590  0.41304616    -0.12800
C3369       C  0.63156620  0.23604884  0.54151244    -0.11300
C3370       C  0.60485493  0.23856239  0.54198468    -0.12800
C3371       C  0.84387792  0.25025229  0.54800428    -0.11300
C3372       C  0.87507152  0.25890892  0.54826158    -0.12800
C3373       C  0.76303281  0.38839596  0.54153687    -0.11300
C3374       C  0.76004555  0.35893668  0.54177113    -0.12800
C3375       C  0.74889482  0.08914666  0.54920513    -0.11300
C3376       C  0.73953021  0.11111081  0.54926183    -0.12800
C3377       C  0.74944168  0.24871509  0.50371442    -0.11300
C3378       C  0.75195979  0.24887610  0.49427808    -0.12800
C3379       C  0.50619798  0.32179372  0.91989957    -0.11300
C3380       C  0.51782453  0.34552439  0.91346323    -0.12800
C3381       C  0.58525816  0.41702592  0.83859218    -0.11300
C3382       C  0.58816119  0.41802612  0.82914181    -0.12800
C3383       C  0.73027752  0.42635350  0.79043166    -0.11300
C3384       C  0.70326462  0.42837881  0.79078524    -0.12800
C3385       C  0.95919691  0.40790641  0.78262489    -0.11300
C3386       C  0.99021514  0.41611451  0.78287830    -0.12800
C3387       C  0.81648267  0.47153092  0.91412506    -0.11300
C3388       C  0.80499354  0.48388887  0.92051108    -0.12800
C3389       C  0.67436845  0.41922926  0.88435741    -0.11300
C3390       C  0.70562921  0.42864064  0.88479065    -0.12800
C3391       C  0.95741000  0.40260929  0.87485114    -0.11300
C3392       C  0.93060797  0.40502404  0.87518253    -0.12800
C3393       C  0.83170615  0.42118725  0.83792490    -0.11300
C3394       C  0.83149261  0.41786212  0.82852859    -0.12800
C3395       C  0.58500617  0.07569560  0.78353556    -0.11300
C3396       C  0.59388115  0.05333938  0.78319769    -0.12800
C3397       C  0.57342798  0.30607065  0.79117042    -0.11300
C3398       C  0.57055980  0.27672602  0.79154761    -0.12800
C3399       C  0.69625665  0.27557295  0.79119097    -0.11300
C3400       C  0.72609495  0.30149066  0.79125198    -0.12800
C3401       C  0.92777551  0.01538647  0.78373459    -0.11300
C3402       C  0.94971041  0.04663981  0.78379558    -0.12800
C3403       C  0.67945062  0.19434155  0.91899271    -0.11300
C3404       C  0.65543198  0.18171881  0.91264002    -0.12800
C3405       C  0.58100649  0.16649100  0.82844041    -0.11300
C3406       C  0.57901025  0.16356313  0.83789250    -0.12800
C3407       C  0.93894252  0.03341985  0.87537939    -0.11300
C3408       C  0.96826781  0.06004115  0.87542922    -0.12800
C3409       C  0.73856055  0.32285016  0.88044333    -0.11300
C3410       C  0.71613371  0.29165278  0.88042010    -0.12800
C3411       C  0.58799790  0.02871533  0.87574229    -0.11300
C3412       C  0.59151178  0.05835181  0.87551781    -0.12800
C3413       C  0.57611538  0.25774816  0.88252624    -0.11300
C3414       C  0.56702416  0.27993304  0.88274090    -0.12800
C3415       C  0.65384436  0.01282573  0.74615290    -0.11300
C3416       C  0.64223597  0.48839570  0.75244750    -0.12800
C3417       C  0.66599447  0.08204314  0.66174321    -0.11300
C3418       C  0.66868402  0.08335604  0.67119139    -0.12800
C3419       C  0.68951568  0.17428575  0.57941911    -0.11300
C3420       C  0.67756037  0.15104637  0.58605561    -0.12800
C3421       C  0.77410304  0.19740750  0.70885174    -0.11300
C3422       C  0.80023277  0.22708572  0.70855936    -0.12800
C3423       C  0.51381448  0.42446893  0.71231987    -0.11300
C3424       C  0.54515522  0.44660072  0.71211395    -0.12800
C3425       C  0.84883420  0.36195720  0.75254244    -0.11300
C3426       C  0.86076222  0.35067518  0.74590973    -0.12800
C3427       C  0.53159326  0.43608947  0.62377093    -0.11300
C3428       C  0.55838279  0.46520436  0.62351292    -0.12800
C3429       C  0.79096058  0.21630160  0.61719378    -0.11300
C3430       C  0.82209448  0.23906213  0.61713136    -0.12800
C3431       C  0.91776318  0.33465779  0.66122313    -0.11300
C3432       C  0.91691264  0.33305323  0.67069093    -0.12800
C3433       C  0.98962690  0.30917941  0.57998304    -0.11300
C3434       C  0.97803951  0.32142147  0.58640657    -0.12800
C3435       C  0.90724488  0.46145980  0.71332218    -0.11300
C3436       C  0.91635903  0.49279920  0.71346980    -0.12800
C3437       C  0.93021700  0.20560703  0.70872562    -0.11300
C3438       C  0.92718476  0.23198778  0.70900908    -0.12800
C3439       C  0.57519076  0.08763402  0.71416438    -0.11300
C3440       C  0.55346155  0.09725109  0.71392804    -0.12800
C3441       C  0.77680713  0.07415705  0.70856988    -0.11300
C3442       C  0.80644980  0.07777361  0.70868225    -0.12800
C3443       C  0.51369733  0.15880409  0.75281747    -0.11300
C3444       C  0.98998955  0.14666884  0.74641283    -0.12800
C3445       C  0.78055704  0.06939617  0.61666297    -0.11300
C3446       C  0.75768965  0.07747476  0.61684909    -0.12800
C3447       C  0.52770536  0.08740573  0.62377271    -0.11300
C3448       C  0.55749735  0.09127274  0.62415692    -0.12800
C3449       C  0.92904161  0.20846230  0.61764461    -0.11300
C3450       C  0.92005924  0.17707727  0.61759884    -0.12800
C3451       C  0.91038205  0.43892138  0.62330459    -0.11300
C3452       C  0.90786561  0.46559872  0.62353251    -0.12800
C3453       C  0.91950746  0.08333592  0.66199201    -0.11300
C3454       C  0.92009416  0.08621500  0.67141807    -0.12800
C3455       C  0.82051267  0.00747609  0.58032143    -0.11300
C3456       C  0.84421601  0.01996065  0.58680495    -0.12800
O3457       O  0.88963991  0.59189210  0.64730090    -0.78900
O3458       O  0.87418172  0.56664559  0.59808969    -0.63600
O3459       O  0.87334670  0.55840187  0.62778352    -1.10200
C3460       C  0.99347958  0.58472200  0.62121125     1.08000
O3461       O  0.89449461  0.52932293  0.59622634    -0.76800
O3462       O  0.92517980  0.51160861  0.61188238    -0.64400
Ni3463     Ni  0.86037283  0.58792640  0.63564557     1.34900
C3464       C  0.91130224  0.99829987  0.62214804     0.86700
O3465       O  0.82424210  0.55184191  0.61222737    -0.77300
O3466       O  0.82712326  0.58667941  0.62543862    -0.87600
C3467       C  0.87395262  0.54097837  0.59335859     0.86300
O3468       O  0.89808978  0.63056060  0.62978287    -0.65800
O3469       O  0.98410615  0.57716374  0.61158429    -0.85100
C3470       C  0.90211058  0.63834133  0.62009731     0.87100
C3471       C  0.81192808  0.56835944  0.61734225     1.08700
H3472       H  0.93657209  0.60111771  0.61256058     0.40500
O3473       O  0.92168589  0.57584485  0.61382661    -1.07700
O3474       O  0.90828781  0.51912932  0.62789832    -0.64400
Ni3475     Ni  0.92254304  0.56962055  0.62857956     1.26300
O3476       O  0.88909768  0.61479101  0.61288167    -0.64600
O3477       O  0.97223847  0.58196334  0.62863477    -0.76900
C3478       C  0.90934951  0.57950012  0.65006880     0.86500
O3479       O  0.92180669  0.56567530  0.64368910    -0.64100
Ni3480     Ni  0.93884286  0.55423901  0.60427754     1.27400
Ni3481     Ni  0.87319677  0.56389749  0.61288444     1.26100
H3482       H  0.85750010  0.53370747  0.62962070     0.41100
O3483       O  0.94714538  0.64116521  0.73542017    -0.78900
O3484       O  0.91439209  0.60068985  0.68805840    -0.63600
O3485       O  0.91762294  0.59415900  0.71801748    -1.10200
C3486       C  0.52416351  0.59764172  0.71128678     1.08000
O3487       O  0.95091494  0.57959896  0.68408508    -0.76800
O3488       O  0.93817505  0.53877259  0.70143418    -0.64400
Ni3489     Ni  0.90233029  0.61746502  0.72753876     1.34900
C3490       C  0.93425626  0.53031844  0.71107487     0.86700
O3491       O  0.86555468  0.58635134  0.70354089    -0.77300
O3492       O  0.85657277  0.59578267  0.72048181    -0.87600
C3493       C  0.92882245  0.58925436  0.68152963     0.86300
O3494       O  0.91700455  0.65990694  0.71973694    -0.65800
O3495       O  0.50853248  0.58212610  0.70281925    -0.85100
C3496       C  0.92593525  0.66922138  0.71029537     0.87100
C3497       C  0.84569921  0.58627377  0.71104125     1.08700
H3498       H  0.98063095  0.63508853  0.70189256     0.40500
O3499       O  0.96495353  0.61041066  0.70378027    -1.07700
O3500       O  0.94835033  0.55345611  0.71842194    -0.64400
Ni3501     Ni  0.96581962  0.60497232  0.71865910     1.26300
O3502       O  0.92897865  0.64934691  0.70339699    -0.64600
O3503       O  0.51242577  0.61226819  0.71758222    -0.76900
C3504       C  0.96656466  0.62823149  0.73834300     0.86500
O3505       O  0.96577360  0.60243813  0.73348579    -0.64100
Ni3506     Ni  0.97782159  0.58064649  0.69596196     1.27400
Ni3507     Ni  0.91538394  0.59882812  0.70323177     1.26100
H3508       H  0.90239630  0.56910853  0.71954523     0.41100
O3509       O  0.89201975  0.79753777  0.64586538    -0.78900
O3510       O  0.93014373  0.80272140  0.59875652    -0.63600
O3511       O  0.93516541  0.81033503  0.62843814    -1.10200
C3512       C  0.91563615  0.90820915  0.62146760     1.08000
O3513       O  0.96793389  0.86045382  0.59684045    -0.76800
O3514       O  0.98583231  0.91032387  0.61225236    -0.64400
Ni3515     Ni  0.90436621  0.77011582  0.63692073     1.34900
C3516       C  0.49994649  0.90886292  0.62154578     0.86700
O3517       O  0.93918423  0.76464808  0.61349339    -0.77300
O3518       O  0.91350122  0.73835669  0.62875782    -0.87600
C3519       C  0.95619639  0.82807970  0.59407222     0.86300
O3520       O  0.86159317  0.75681383  0.62948549    -0.65800
O3521       O  0.92084256  0.90428825  0.61175440    -0.85100
C3522       C  0.85532882  0.75660904  0.61979648     0.87100
C3523       C  0.92757864  0.73876980  0.61996274     1.08700
H3524       H  0.89587501  0.83320154  0.61312781     0.40500
O3525       O  0.92109997  0.84275005  0.61427924    -1.07700
O3526       O  0.97925276  0.88470776  0.62803808    -0.64400
Ni3527     Ni  0.92810550  0.85078641  0.62899423     1.26300
O3528       O  0.87964046  0.77139063  0.61290258    -0.64600
O3529       O  0.91918149  0.89046869  0.62897241    -0.76900
C3530       C  0.91369631  0.82737678  0.64980577     0.86500
O3531       O  0.93353156  0.85409189  0.64402866    -0.64100
Ni3532     Ni  0.94333147  0.88097339  0.60462113     1.27400
Ni3533     Ni  0.93066239  0.80419611  0.61360042     1.26100
H3534       H  0.95950786  0.81778847  0.63036281     0.41100
O3535       O  0.86781540  0.80624333  0.73561580    -0.78900
O3536       O  0.89792042  0.80949469  0.68800977    -0.63600
O3537       O  0.91242285  0.82246912  0.71764405    -1.10200
C3538       C  0.90866638  0.92723382  0.71321411     1.08000
O3539       O  0.93015091  0.86759182  0.68416816    -0.76800
O3540       O  0.96893131  0.90101168  0.70119329    -0.64400
Ni3541     Ni  0.89040394  0.78448396  0.72745881     1.34900
C3542       C  0.97711500  0.90487753  0.71083720     0.86700
O3543       O  0.91451958  0.77521738  0.70293845    -0.77300
O3544       O  0.91102910  0.75988418  0.72007237    -0.87600
C3545       C  0.91343759  0.83514336  0.68150407     0.86300
O3546       O  0.84670497  0.75583668  0.72026168    -0.65800
O3547       O  0.92481435  0.92843375  0.70479633    -0.85100
C3548       C  0.83521524  0.75605188  0.71113690     0.87100
C3549       C  0.91728828  0.75684600  0.71039516     1.08700
H3550       H  0.87121548  0.84592371  0.70196794     0.40500
O3551       O  0.89585423  0.85382824  0.70362969    -1.07700
O3552       O  0.95394345  0.89418629  0.71815632    -0.64400
Ni3553     Ni  0.90270974  0.86074400  0.71846381     1.26300
O3554       O  0.85348860  0.77935713  0.70414888    -0.64600
O3555       O  0.89318440  0.89953664  0.71891700    -0.76900
C3556       C  0.88074179  0.83883706  0.73830989     0.86500
O3557       O  0.90628825  0.86350964  0.73327808    -0.64100
Ni3558     Ni  0.92596024  0.89481887  0.69522091     1.27400
Ni3559     Ni  0.90433192  0.81407685  0.70297635     1.26100
H3560       H  0.93769540  0.83201310  0.71867981     0.41100
O3561       O  0.69789090  0.58490804  0.64481598    -0.78900
O3562       O  0.68968312  0.62284657  0.59850845    -0.63600
O3563       O  0.68459831  0.61779021  0.62821846    -1.10200
C3564       C  0.58573702  0.50145015  0.62112597     1.08000
O3565       O  0.63176209  0.60220216  0.59687296    -0.76800
O3566       O  0.58378816  0.57018492  0.61258571    -0.64400
Ni3567     Ni  0.72535254  0.62559666  0.63613451     1.34900
C3568       C  0.58587750  0.58278106  0.62168371     0.86700
O3569       O  0.72866682  0.66860771  0.61338119    -0.77300
O3570       O  0.75673360  0.66714069  0.62807400    -0.87600
C3571       C  0.66387823  0.62302874  0.59396480     0.86300
O3572       O  0.73737125  0.59648379  0.62796348    -0.65800
O3573       O  0.58923996  0.51102992  0.61146985    -0.85100
C3574       C  0.73726028  0.59226325  0.61814961     0.87100
C3575       C  0.75541415  0.68182533  0.61954852     1.08700
H3576       H  0.66038081  0.55688760  0.61251384     0.40500
O3577       O  0.65085402  0.57242671  0.61392921    -1.07700
O3578       O  0.61054429  0.58856011  0.62827489    -0.64400
Ni3579     Ni  0.64385877  0.57055946  0.62875871     1.26300
O3580       O  0.72209698  0.60287068  0.61174050    -0.64600
O3581       O  0.60374271  0.52225683  0.62868117    -0.76900
C3582       C  0.66932191  0.57843418  0.64931724     0.86500
O3583       O  0.64189880  0.57206320  0.64392603    -0.64100
Ni3584     Ni  0.61203466  0.55696407  0.60450962     1.27400
Ni3585     Ni  0.68924049  0.62062133  0.61333712     1.26100
H3586       H  0.67775613  0.63478495  0.63054272     0.41100
O3587       O  0.69645809  0.55724910  0.73473173    -0.78900
O3588       O  0.69799398  0.58931385  0.68729289    -0.63600
O3589       O  0.68185232  0.58780200  0.71698046    -1.10200
C3590       C  0.57681684  0.97952846  0.71174001     1.08000
O3591       O  0.64240696  0.57641495  0.68525023    -0.76800
O3592       O  0.59798250  0.56335883  0.70080515    -0.64400
Ni3593     Ni  0.71831082  0.60287040  0.72718683     1.34900
C3594       C  0.59682552  0.56879811  0.71050205     0.86700
O3595       O  0.73173418  0.63895299  0.70301276    -0.77300
O3596       O  0.74239520  0.64925521  0.72044001    -0.87600
C3597       C  0.67170533  0.58271090  0.68133531     0.86300
O3598       O  0.74901251  0.59035456  0.71995413    -0.65800
O3599       O  0.57828183  0.99143375  0.70251060    -0.85100
C3600       C  0.74929818  0.57849874  0.71087690     0.87100
C3601       C  0.74756738  0.65954044  0.71083173     1.08700
H3602       H  0.65899852  0.52597635  0.70046825     0.40500
O3603       O  0.65149016  0.54285332  0.70235550    -1.07700
O3604       O  0.61068752  0.55856618  0.71748266    -0.64400
Ni3605     Ni  0.64296550  0.53975526  0.71709511     1.26300
O3606       O  0.72598590  0.57288515  0.70380921    -0.64600
O3607       O  0.60092301  0.99543012  0.71867926    -0.76900
C3608       C  0.66369342  0.53683677  0.73717705     0.86500
O3609       O  0.63898435  0.53709839  0.73194868    -0.64100
Ni3610     Ni  0.61279965  0.53500207  0.69337275     1.27400
Ni3611     Ni  0.69228962  0.59028796  0.70236358     1.26100
H3612       H  0.67227303  0.60350010  0.71800543     0.41100
O3613       O  0.58629779  0.69533415  0.85275437    -0.78900
O3614       O  0.62809586  0.69661238  0.89919512    -0.63600
O3615       O  0.62071579  0.68577596  0.86959413    -1.10200
C3616       C  0.50517208  0.58768542  0.87811233     1.08000
O3617       O  0.60795757  0.63911472  0.90180928    -0.76800
O3618       O  0.57540414  0.58801693  0.88680938    -0.64400
Ni3619     Ni  0.62744586  0.72485946  0.86099715     1.34900
C3620       C  0.58711432  0.58854126  0.87766708     0.86700
O3621       O  0.67237475  0.73302743  0.88370448    -0.77300
O3622       O  0.66938406  0.75827083  0.86859244    -0.87600
C3623       C  0.62872748  0.67179764  0.90422326     0.86300
O3624       O  0.59804634  0.73728021  0.86882113    -0.65800
O3625       O  0.51559215  0.59270132  0.88770988    -0.85100
C3626       C  0.59402558  0.73854765  0.87859195     0.87100
C3627       C  0.68494819  0.75859974  0.87711491     1.08700
H3628       H  0.56082498  0.66382367  0.88560197     0.40500
O3629       O  0.57653479  0.65437706  0.88436494    -1.07700
O3630       O  0.59202214  0.61192336  0.87071885    -0.64400
Ni3631     Ni  0.57360057  0.64472612  0.86966938     1.26300
O3632       O  0.60602899  0.72558422  0.88531623    -0.64600
O3633       O  0.52539353  0.60452778  0.87032632    -0.76900
C3634       C  0.58012412  0.66620372  0.84873881     0.86500
O3635       O  0.57408793  0.63983087  0.85457749    -0.64100
Ni3636     Ni  0.56214585  0.61732227  0.89437790     1.27400
Ni3637     Ni  0.62461198  0.69325087  0.88437360     1.26100
H3638       H  0.63771011  0.67873119  0.86742514     0.41100
O3639       O  0.56165586  0.70116319  0.76400919    -0.78900
O3640       O  0.59205368  0.69516742  0.81116107    -0.63600
O3641       O  0.59247308  0.68432016  0.78126766    -1.10200
C3642       C  0.98024244  0.57714596  0.78822022     1.08000
O3643       O  0.57942245  0.63941216  0.81249204    -0.76800
O3644       O  0.56770900  0.59782031  0.79620691    -0.64400
Ni3645     Ni  0.60698624  0.72244254  0.77165096     1.34900
C3646       C  0.57351649  0.59804081  0.78648258     0.86700
O3647       O  0.64220127  0.73225261  0.79584638    -0.77300
O3648       O  0.65294043  0.74618367  0.77857534    -0.87600
C3649       C  0.58538773  0.66811823  0.81676626     0.86300
O3650       O  0.59301447  0.75077582  0.77947799    -0.65800
O3651       O  0.99450931  0.57721756  0.79697134    -0.85100
C3652       C  0.58043541  0.74899685  0.78857143     0.87100
C3653       C  0.66287642  0.74971786  0.78819784     1.08700
H3654       H  0.52963124  0.65794811  0.79756878     0.40500
O3655       O  0.54685823  0.65105651  0.79553342    -1.07700
O3656       O  0.56391897  0.61321387  0.77974575    -0.64400
Ni3657     Ni  0.54480613  0.64517991  0.78068130     1.26300
O3658       O  0.57538111  0.72492462  0.79528514    -0.64600
O3659       O  0.99383721  0.60303323  0.78173022    -0.76900
C3660       C  0.54212479  0.66880321  0.76108689     0.86500
O3661       O  0.54322180  0.64371446  0.76581545    -0.64100
Ni3662     Ni  0.53876016  0.61113664  0.80393819     1.27400
Ni3663     Ni  0.59391378  0.69211048  0.79603534     1.26100
H3664       H  0.60854804  0.67533427  0.77998675     0.41100
O3665       O  0.79545173  0.91079896  0.85081195    -0.78900
O3666       O  0.80213664  0.92882760  0.90028975    -0.63600
O3667       O  0.81139057  0.94064840  0.87070286    -1.10200
C3668       C  0.90622258  0.91546335  0.87683752     1.08000
O3669       O  0.85959791  0.96630738  0.90258849    -0.76800
O3670       O  0.90904219  0.98715454  0.88697427    -0.64400
Ni3671     Ni  0.76924898  0.91153884  0.86262998     1.34900
C3672       C  0.90905296  0.99851579  0.87780689     0.86700
O3673       O  0.76757101  0.94475719  0.88621405    -0.77300
O3674       O  0.73623440  0.90960300  0.87301036    -0.87600
C3675       C  0.82712782  0.95405691  0.90531262     0.86300
O3676       O  0.76602297  0.86887025  0.86780539    -0.65800
O3677       O  0.90418057  0.92242277  0.88651391    -0.85100
C3678       C  0.76099694  0.85961655  0.87737233     0.87100
C3679       C  0.73881153  0.92772366  0.88109046     1.08700
H3680       H  0.83187801  0.89673437  0.88553796     0.40500
O3681       O  0.84198804  0.92207475  0.88447074    -1.07700
O3682       O  0.88585740  0.98020448  0.87079853    -0.64400
Ni3683     Ni  0.84963011  0.92980552  0.86976786     1.26300
O3684       O  0.77034795  0.88212716  0.88487646    -0.64600
O3685       O  0.88719491  0.91778683  0.86950465    -0.76900
C3686       C  0.82768398  0.92326593  0.84822756     0.86500
O3687       O  0.85350996  0.93544359  0.85474908    -0.64100
Ni3688     Ni  0.88042217  0.94337933  0.89415546     1.27400
Ni3689     Ni  0.80489299  0.93328313  0.88550932     1.26100
H3690       H  0.82012773  0.96550042  0.86910584     0.41100
O3691       O  0.80986958  0.86574829  0.76347438    -0.78900
O3692       O  0.81112866  0.90193015  0.81054080    -0.63600
O3693       O  0.82531605  0.91280824  0.78080999    -1.10200
C3694       C  0.92915282  0.90775335  0.78772591     1.08000
O3695       O  0.86786064  0.94231035  0.81312830    -0.76800
O3696       O  0.90735231  0.97303806  0.79665372    -0.64400
Ni3697     Ni  0.78793543  0.88966139  0.77089193     1.34900
C3698       C  0.90891492  0.97878716  0.78690437     0.86700
O3699       O  0.77639841  0.91560908  0.79483720    -0.77300
O3700       O  0.76308778  0.91145370  0.77752352    -0.87600
C3701       C  0.83708839  0.92128389  0.81662047     0.86300
O3702       O  0.75888331  0.84716199  0.77856241    -0.65800
O3703       O  0.92928577  0.92337282  0.79618805    -0.85100
C3704       C  0.75912961  0.83666952  0.78782660     0.87100
C3705       C  0.75877225  0.91790090  0.78708071     1.08700
H3706       H  0.84878932  0.87523157  0.79773942     0.40500
O3707       O  0.85639308  0.89943774  0.79561373    -1.07700
O3708       O  0.89661275  0.95415896  0.78006110    -0.64400
Ni3709     Ni  0.86387058  0.90319862  0.78079803     1.26300
O3710       O  0.78239748  0.85562324  0.79473241    -0.64600
O3711       O  0.90314040  0.89441738  0.78131592    -0.76900
C3712       C  0.84255181  0.87785007  0.76101289     0.86500
O3713       O  0.86729210  0.90353252  0.76598091    -0.64100
Ni3714     Ni  0.89609417  0.93103522  0.80418636     1.27400
Ni3715     Ni  0.81603703  0.90669452  0.79550981     1.26100
H3716       H  0.83486209  0.93792738  0.77946059     0.41100
O3717       O  0.60625733  0.90843919  0.85417442    -0.78900
O3718       O  0.56279463  0.87192297  0.90061480    -0.63600
O3719       O  0.56024103  0.87571203  0.87089260    -1.10200
C3720       C  0.57801020  0.99207253  0.87804378     1.08000
O3721       O  0.52427754  0.89095743  0.90234432    -0.76800
O3722       O  0.50671844  0.92248050  0.88675005    -0.64400
Ni3723     Ni  0.59227425  0.86727987  0.86269799     1.34900
C3724       C  0.49590985  0.90998843  0.87764306     0.86700
O3725       O  0.55573603  0.82586889  0.88585591    -0.77300
O3726       O  0.58141850  0.82530937  0.87056146    -0.87600
C3727       C  0.53645928  0.87080576  0.90521562     0.86300
O3728       O  0.63424074  0.89512786  0.87072352    -0.65800
O3729       O  0.57148231  0.98222944  0.88767792    -0.85100
C3730       C  0.63924990  0.90125928  0.88045725     0.87100
C3731       C  0.56737550  0.81170641  0.87937791     1.08700
H3732       H  0.59723284  0.93717343  0.88646118     0.40500
O3733       O  0.57216723  0.92126366  0.88512203    -1.07700
O3734       O  0.51499521  0.90487499  0.87092061    -0.64400
Ni3735     Ni  0.56656195  0.92289990  0.87031717     1.26300
O3736       O  0.61415376  0.89232380  0.88700950    -0.64600
O3737       O  0.57499559  0.97130993  0.87044345    -0.76900
C3738       C  0.58472612  0.91575263  0.84968750     0.86500
O3739       O  0.56323788  0.92152562  0.85509605    -0.64100
Ni3740     Ni  0.54883847  0.93627134  0.89466066     1.27400
Ni3741     Ni  0.56332600  0.87348315  0.88577619     1.26100
H3742       H  0.53618531  0.85864293  0.86876606     0.41100
O3743       O  0.63659963  0.94202446  0.76343938    -0.78900
O3744       O  0.60680581  0.91530191  0.81126514    -0.63600
O3745       O  0.59214373  0.91438103  0.78149440    -1.10200
C3746       C  0.59896509  0.52374535  0.78610820     1.08000
O3747       O  0.57353036  0.94014976  0.81495077    -0.76800
O3748       O  0.53546443  0.93405311  0.79768653    -0.64400
Ni3749     Ni  0.61270713  0.89753637  0.77150909     1.34900
C3750       C  0.52761732  0.93109891  0.78802977     0.86700
O3751       O  0.59047625  0.86480542  0.79606180    -0.77300
O3752       O  0.59064610  0.85221952  0.77880768    -0.87600
C3753       C  0.59040035  0.92468460  0.81774101     0.86300
O3754       O  0.65617476  0.91089253  0.77864026    -0.65800
O3755       O  0.57959813  0.50695930  0.79389195    -0.85100
C3756       C  0.66885077  0.92375742  0.78758759     0.87100
C3757       C  0.58584837  0.84329045  0.78852443     1.08700
H3758       H  0.63318084  0.97870279  0.79740486     0.40500
O3759       O  0.60870707  0.96184446  0.79560677    -1.07700
O3760       O  0.55112354  0.94500411  0.78083251    -0.64400
Ni3761     Ni  0.60237465  0.96251868  0.78074551     1.26300
O3762       O  0.65153430  0.93001475  0.79464760    -0.64600
O3763       O  0.61663083  0.51267816  0.78101599    -0.76900
C3764       C  0.62464337  0.96258307  0.76081949     0.86500
O3765       O  0.59953157  0.96249604  0.76588982    -0.64100
Ni3766     Ni  0.57752156  0.97150063  0.80387312     1.27400
Ni3767     Ni  0.60054993  0.91377057  0.79615945     1.26100
H3768       H  0.56677842  0.89894874  0.78056334     0.41100
O3769       O  0.76850940  0.73196134  0.51885836    -0.78900
O3770       O  0.72816707  0.69923677  0.56665186    -0.63600
O3771       O  0.72662135  0.70429485  0.53690660    -1.10200
C3772       C  0.74823694  0.82202234  0.54448698     1.08000
O3773       O  0.69147213  0.72052673  0.56843189    -0.76800
O3774       O  0.67596038  0.75398334  0.55297960    -0.64400
Ni3775     Ni  0.75955903  0.69610486  0.52908526     1.34900
C3776       C  0.66485938  0.74128477  0.54391246     0.86700
O3777       O  0.71895170  0.65296815  0.55169209    -0.77300
O3778       O  0.75393318  0.65806371  0.53811487    -0.87600
C3779       C  0.70242337  0.69934966  0.57126814     0.86300
O3780       O  0.80052741  0.73025512  0.53656811    -0.65800
O3781       O  0.74182849  0.81217477  0.55411672    -0.85100
C3782       C  0.80553573  0.73207671  0.54638817     0.87100
C3783       C  0.73558170  0.64165751  0.54613015     1.08700
H3784       H  0.76534752  0.76500140  0.55272940     0.40500
O3785       O  0.74016586  0.74991412  0.55135946    -1.07700
O3786       O  0.68335555  0.73518366  0.53726619    -0.64400
Ni3787     Ni  0.73450344  0.75209675  0.53659764     1.26300
O3788       O  0.78003763  0.71808082  0.55297555    -0.64600
O3789       O  0.74436432  0.80102500  0.53687017    -0.76900
C3790       C  0.74864268  0.74338674  0.51544153     0.86500
O3791       O  0.73017235  0.75127543  0.52151811    -0.64100
Ni3792     Ni  0.71764031  0.76594814  0.56091993     1.27400
Ni3793     Ni  0.72918205  0.70143317  0.55181042     1.26100
H3794       H  0.70265900  0.68765275  0.53459527     0.41100
O3795       O  0.80687066  0.77333207  0.43069752    -0.78900
O3796       O  0.76918500  0.74156143  0.47775108    -0.63600
O3797       O  0.75892207  0.74266679  0.44787551    -1.10200
C3798       C  0.76289999  0.85139117  0.45399761     1.08000
O3799       O  0.72668110  0.75524830  0.47943879    -0.76800
O3800       O  0.69672007  0.76480613  0.46267554    -0.64400
Ni3801     Ni  0.78225260  0.72786743  0.43823681     1.34900
C3802       C  0.69181882  0.76061069  0.45287854     0.86700
O3803       O  0.75625641  0.69204790  0.46232184    -0.77300
O3804       O  0.75962911  0.68166719  0.44505065    -0.87600
C3805       C  0.74887744  0.74794739  0.48348772     0.86300
O3806       O  0.82439887  0.74125299  0.44607813    -0.65800
O3807       O  0.74696133  0.83616119  0.46246704    -0.85100
C3808       C  0.83522296  0.75341792  0.45520474     0.87100
C3809       C  0.75317351  0.67151938  0.45465422     1.08700
H3810       H  0.79506539  0.80471392  0.46456475     0.40500
O3811       O  0.77111042  0.78767768  0.46234545    -1.07700
O3812       O  0.71718592  0.77224355  0.44627749    -0.64400
Ni3813     Ni  0.76816261  0.79066595  0.44748241     1.26300
O3814       O  0.81626318  0.75850173  0.46195723    -0.64600
O3815       O  0.77644061  0.83856007  0.44770648    -0.76900
C3816       C  0.79480914  0.79362511  0.42789713     0.86500
O3817       O  0.76895044  0.79309945  0.43264062    -0.64100
Ni3818     Ni  0.73836836  0.79511839  0.47054163     1.27400
Ni3819     Ni  0.76481511  0.74048157  0.46264008     1.26100
H3820       H  0.73382324  0.72692289  0.44652918     0.41100
O3821       O  0.75662465  0.52645783  0.51991931    -0.78900
O3822       O  0.79371174  0.52460103  0.56646978    -0.63600
O3823       O  0.79018944  0.51574710  0.53682061    -1.10200
C3824       C  0.67580000  0.91875531  0.54387223     1.08000
O3825       O  0.77442875  0.96592038  0.56917228    -0.76800
O3826       O  0.74472086  0.91698124  0.55347992    -0.64400
Ni3827     Ni  0.79809503  0.55516779  0.52815398     1.34900
C3828       C  0.75722570  0.91823577  0.54441070     0.86700
O3829       O  0.83947294  0.56413086  0.55152471    -0.77300
O3830       O  0.84033092  0.58775754  0.53571982    -0.87600
C3831       C  0.79569660  0.50003542  0.57121948     0.86300
O3832       O  0.77013329  0.56983831  0.53587375    -0.65800
O3833       O  0.68479515  0.92157141  0.55358178    -0.85100
C3834       C  0.76284787  0.56866660  0.54552354     0.87100
C3835       C  0.85377240  0.58902459  0.54470756     1.08700
H3836       H  0.73026944  0.99311389  0.55260168     0.40500
O3837       O  0.74611620  0.98376479  0.55146914    -1.07700
O3838       O  0.76289480  0.94235824  0.53761830    -0.64400
Ni3839     Ni  0.74600086  0.97661504  0.53670733     1.26300
O3840       O  0.77158762  0.55307168  0.55234370    -0.64600
O3841       O  0.69721885  0.93718280  0.53646623    -0.76900
C3842       C  0.75655590  0.00103407  0.51580387     0.86500
O3843       O  0.74889541  0.97413610  0.52162349    -0.64100
Ni3844     Ni  0.73000399  0.94517295  0.56102189     1.27400
Ni3845     Ni  0.79229238  0.52258934  0.55163702     1.26100
H3846       H  0.80747089  0.50881489  0.53489490     0.41100
O3847       O  0.72692188  0.52574534  0.43038902    -0.78900
O3848       O  0.75727600  0.52351834  0.47783848    -0.63600
O3849       O  0.75721169  0.51032679  0.44805764    -1.10200
C3850       C  0.64747335  0.90436927  0.45200036     1.08000
O3851       O  0.72608722  0.96140156  0.48146299    -0.76800
O3852       O  0.73588459  0.93222853  0.46389366    -0.64400
Ni3853     Ni  0.77205445  0.54767788  0.43813721     1.34900
C3854       C  0.73845844  0.92719276  0.45421072     0.86700
O3855       O  0.80717438  0.55914093  0.46244514    -0.77300
O3856       O  0.81790028  0.57224521  0.44513750    -0.87600
C3857       C  0.75091157  0.49706875  0.48368589     0.86300
O3858       O  0.75778046  0.57650773  0.44556077    -0.65800
O3859       O  0.66432417  0.90185378  0.45977952    -0.85100
C3860       C  0.74578222  0.57589525  0.45467016     0.87100
C3861       C  0.82777357  0.57645208  0.45477449     1.08700
H3862       H  0.69252204  0.98560397  0.46400354     0.40500
O3863       O  0.70850837  0.97707899  0.46201679    -1.07700
O3864       O  0.72378061  0.93625331  0.44707580    -0.64400
Ni3865     Ni  0.70705410  0.97071241  0.44714838     1.26300
O3866       O  0.74088647  0.55253670  0.46163166    -0.64600
O3867       O  0.65823969  0.93321053  0.44697464    -0.76900
C3868       C  0.70596669  0.99361506  0.42753738     0.86500
O3869       O  0.70643175  0.96832037  0.43232309    -0.64100
Ni3870     Ni  0.69716971  0.93500594  0.46989445     1.27400
Ni3871     Ni  0.75879670  0.51926156  0.46275706     1.26100
H3872       H  0.77319537  0.50113502  0.44693445     0.41100
O3873       O  0.96353731  0.73884184  0.51770849    -0.78900
O3874       O  0.97060734  0.76354054  0.56692056    -0.63600
O3875       O  0.97905240  0.77127447  0.53723024    -1.10200
C3876       C  0.57620627  0.74792658  0.54364208     1.08000
O3877       O  0.52962122  0.80247036  0.56807412    -0.76800
O3878       O  0.57900132  0.82079285  0.55259807    -0.64400
Ni3879     Ni  0.93706567  0.74106292  0.52923439     1.34900
C3880       C  0.57941646  0.83107014  0.54326879     0.86700
O3881       O  0.93446432  0.77617397  0.55245651    -0.77300
O3882       O  0.90375658  0.74037251  0.53928381    -0.87600
C3883       C  0.99567050  0.78960031  0.57169334     0.86300
O3884       O  0.93344951  0.69890842  0.53502230    -0.65800
O3885       O  0.57392587  0.75608057  0.55317337    -0.85100
C3886       C  0.92883529  0.69077328  0.54468295     0.87100
C3887       C  0.90584549  0.75870155  0.54726168     1.08700
H3888       H  0.50169533  0.73058308  0.55191054     0.40500
O3889       O  0.51194606  0.75576170  0.55051203    -1.07700
O3890       O  0.55633321  0.81198108  0.53628907    -0.64400
Ni3891     Ni  0.51979291  0.76129153  0.53575117     1.26300
O3892       O  0.93872859  0.71421245  0.55195978    -0.64600
O3893       O  0.55738126  0.74931656  0.53608187    -0.76900
C3894       C  0.49741686  0.75034675  0.51417433     0.86500
O3895       O  0.52349925  0.76438083  0.52063216    -0.64100
Ni3896     Ni  0.55021906  0.77818238  0.56021482     1.27400
Ni3897     Ni  0.97270250  0.76570665  0.55208764     1.26100
H3898       H  0.98745422  0.79588074  0.53537460     0.41100
O3899       O  0.97239432  0.69571111  0.43012456    -0.78900
O3900       O  0.97702415  0.72861279  0.47763337    -0.63600
O3901       O  0.98954020  0.74133374  0.44788697    -1.10200
C3902       C  0.59151062  0.73320434  0.45179332     1.08000
O3903       O  0.53324577  0.76668194  0.47851217    -0.76800
O3904       O  0.57245418  0.79810982  0.46184104    -0.64400
Ni3905     Ni  0.95151961  0.71951194  0.43811218     1.34900
C3906       C  0.57295907  0.80434890  0.45213276     0.86700
O3907       O  0.94214420  0.74433703  0.46249814    -0.77300
O3908       O  0.92769590  0.74132746  0.44530650    -0.87600
C3909       C  0.00354562  0.74759876  0.48357202     0.86300
O3910       O  0.92252902  0.67644573  0.44555398    -0.65800
O3911       O  0.59211967  0.74725615  0.46060249    -0.85100
C3912       C  0.92310442  0.66511998  0.45467958     0.87100
C3913       C  0.92425711  0.74744652  0.45496515     1.08700
H3914       H  0.51251715  0.69984756  0.46267444     0.40500
O3915       O  0.51976463  0.72418777  0.46079698    -1.07700
O3916       O  0.55822170  0.78000605  0.44526263    -0.64400
Ni3917     Ni  0.52537944  0.72907315  0.44592762     1.26300
O3918       O  0.94662243  0.68346541  0.46160115    -0.64600
O3919       O  0.56504167  0.72071329  0.44552477    -0.76900
C3920       C  0.50114030  0.70466212  0.42633870     0.86500
O3921       O  0.52650774  0.73038775  0.43109964    -0.64100
Ni3922     Ni  0.56035515  0.75527119  0.46912619     1.27400
Ni3923     Ni  0.98107101  0.73430604  0.46261044     1.26100
H3924       H  0.99941351  0.76659859  0.44673048     0.41100
O3925       O  0.55597618  0.63389635  0.31227508    -0.78900
O3926       O  0.59373223  0.63466411  0.26576363    -0.63600
O3927       O  0.59955782  0.64433818  0.29535295    -1.10200
C3928       C  0.58128178  0.74263200  0.28769426     1.08000
O3929       O  0.63210740  0.69217632  0.26353910    -0.76800
O3930       O  0.65116802  0.74307441  0.27858001    -0.64400
Ni3931     Ni  0.56884571  0.60514352  0.30415460     1.34900
C3932       C  0.66274613  0.74220405  0.28763519     0.86700
O3933       O  0.60155794  0.59647871  0.28080745    -0.77300
O3934       O  0.57885947  0.57282195  0.29662835    -0.87600
C3935       C  0.61979471  0.65958046  0.26095121     0.86300
O3936       O  0.52591492  0.58969591  0.29654902    -0.65800
O3937       O  0.58653223  0.73816467  0.27803042    -0.85100
C3938       C  0.51948407  0.59012926  0.28689377     0.87100
C3939       C  0.59129704  0.57176810  0.28766860     1.08700
H3940       H  0.56084610  0.66725898  0.27987246     0.40500
O3941       O  0.58603317  0.67642261  0.28098778    -1.07700
O3942       O  0.64456789  0.71843701  0.29452619    -0.64400
Ni3943     Ni  0.59334546  0.68538252  0.29565369     1.26300
O3944       O  0.54355163  0.60550579  0.27999160    -0.64600
O3945       O  0.58505836  0.72549816  0.29533929    -0.76900
C3946       C  0.57869363  0.66288749  0.31642356     0.86500
O3947       O  0.59910041  0.68955183  0.31070782    -0.64100
Ni3948     Ni  0.60834275  0.71384425  0.27110421     1.27400
Ni3949     Ni  0.59457302  0.63711303  0.28058562     1.26100
H3950       H  0.62389196  0.65159617  0.29722874     0.41100
O3951       O  0.52720020  0.63331964  0.40122184    -0.78900
O3952       O  0.56233422  0.63751232  0.35426644    -0.63600
O3953       O  0.57469317  0.64960501  0.38402961    -1.10200
C3954       C  0.57145149  0.75508469  0.37826200     1.08000
O3955       O  0.60399746  0.69395198  0.35215598    -0.76800
O3956       O  0.63583699  0.73389177  0.36863535    -0.64400
Ni3957     Ni  0.55125118  0.61179177  0.39376578     1.34900
C3958       C  0.64194684  0.73459061  0.37835562     0.86700
O3959       O  0.57592353  0.60101627  0.36962994    -0.77300
O3960       O  0.57321895  0.58766200  0.38693956    -0.87600
C3961       C  0.58178803  0.66400955  0.34835699     0.86300
O3962       O  0.50881677  0.58295448  0.38606503    -0.65800
O3963       O  0.58595664  0.75533497  0.36954654    -0.85100
C3964       C  0.49776395  0.58426755  0.37697170     0.87100
C3965       C  0.57909697  0.58358179  0.37731174     1.08700
H3966       H  0.53754121  0.67543145  0.36775227     0.40500
O3967       O  0.56173675  0.68241748  0.36971822    -1.07700
O3968       O  0.61746043  0.72086944  0.38524224    -0.64400
Ni3969     Ni  0.56623411  0.68880050  0.38455854     1.26300
O3970       O  0.51645755  0.60830471  0.37020755    -0.64600
O3971       O  0.55858721  0.72882442  0.38459163    -0.76900
C3972       C  0.53994110  0.66578085  0.40399417     0.86500
O3973       O  0.56670707  0.69056531  0.39939260    -0.64100
Ni3974     Ni  0.59334324  0.72239968  0.36126289     1.27400
Ni3975     Ni  0.56780585  0.64128175  0.36932611     1.26100
H3976       H  0.59979820  0.65859668  0.38525602     0.41100
O3977       O  0.55052056  0.92270675  0.31484512    -0.78900
O3978       O  0.53413051  0.89971993  0.26567614    -0.63600
O3979       O  0.53333035  0.88986591  0.29531628    -1.10200
C3980       C  0.65279965  0.91354426  0.28856521     1.08000
O3981       O  0.55348549  0.86166521  0.26355032    -0.76800
O3982       O  0.58409993  0.84224791  0.27894588    -0.64400
Ni3983     Ni  0.52127317  0.91976985  0.30338812     1.34900
C3984       C  0.57269539  0.83076572  0.28809088     0.86700
O3985       O  0.98667837  0.88731933  0.27938438    -0.77300
O3986       O  0.99126935  0.92262405  0.29266100    -0.87600
C3987       C  0.53365474  0.87425476  0.26073120     0.86300
O3988       O  0.55939136  0.96241411  0.29770224    -0.65800
O3989       O  0.64341931  0.90715900  0.27889689    -0.85100
C3990       C  0.56359323  0.97071583  0.28806295     0.87100
C3991       C  0.97534657  0.90458480  0.28459996     1.08700
H3992       H  0.59681072  0.93223553  0.28022444     0.40500
O3993       O  0.58147275  0.90694499  0.28134155    -1.07700
O3994       O  0.56723412  0.84885901  0.29506939    -0.64400
Ni3995     Ni  0.58218479  0.89967625  0.29602224     1.26300
O3996       O  0.55040317  0.94753513  0.28074200    -0.64600
O3997       O  0.63165036  0.91080995  0.29602890    -0.76900
C3998       C  0.56949895  0.90940206  0.31748389     0.86500
O3999       O  0.58120190  0.89498995  0.31106778    -0.64100
Ni4000     Ni  0.59801114  0.88540592  0.27159846     1.27400
Ni4001     Ni  0.53326965  0.89629424  0.28047176     1.26100
H4002       H  0.51700795  0.86517937  0.29704719     0.41100
O4003       O  0.60818639  0.96741574  0.40234885    -0.78900
O4004       O  0.57795195  0.93308159  0.35519737    -0.63600
O4005       O  0.57871758  0.92085816  0.38487338    -1.10200
C4006       C  0.68638215  0.92397074  0.38000432     1.08000
O4007       O  0.60290787  0.89984365  0.35153432    -0.76800
O4008       O  0.59778011  0.86289087  0.36887485    -0.64400
Ni4009     Ni  0.56295876  0.94304640  0.39465804     1.34900
C4010       C  0.59554202  0.85561254  0.37855541     0.86700
O4011       O  0.52834354  0.91828656  0.37043848    -0.77300
O4012       O  0.51696222  0.92074882  0.38766841    -0.87600
C4013       C  0.58714505  0.91645016  0.34880406     0.86300
O4014       O  0.57598767  0.98575594  0.38713606    -0.65800
O4015       O  0.66990131  0.90591315  0.37198228    -0.85100
C4016       C  0.58786018  0.99715560  0.37801801     0.87100
C4017       C  0.50737919  0.91503463  0.37800271     1.08700
H4018       H  0.64211438  0.96047159  0.36859424     0.40500
O4019       O  0.62537243  0.93612588  0.37055927    -1.07700
O4020       O  0.60949867  0.87962956  0.38562879    -0.64400
Ni4021     Ni  0.62689521  0.93099035  0.38540639     1.26300
O4022       O  0.59377493  0.97904604  0.37117561    -0.64600
O4023       O  0.67534745  0.94098633  0.38547629    -0.76900
C4024       C  0.62856691  0.95532645  0.40504406     0.86500
O4025       O  0.62774332  0.92943610  0.40023235    -0.64100
Ni4026     Ni  0.63484115  0.90452565  0.36245222     1.27400
Ni4027     Ni  0.57725766  0.92798839  0.37020053     1.26100
H4028       H  0.56327547  0.89561642  0.38604978     0.41100
O4029       O  0.85932805  0.92020975  0.31219381    -0.78900
O4030       O  0.85474076  0.96174370  0.26606807    -0.63600
O4031       O  0.84705942  0.95461245  0.29575353    -1.10200
C4032       C  0.74967407  0.83855502  0.28769605     1.08000
O4033       O  0.79694522  0.94150916  0.26407099    -0.76800
O4034       O  0.74722696  0.90847339  0.27946703    -0.64400
Ni4035     Ni  0.88724044  0.96191429  0.30393687     1.34900
C4036       C  0.74822039  0.91984160  0.28869238     0.86700
O4037       O  0.89400373  0.50454152  0.28071609    -0.77300
O4038       O  0.92074335  0.50361245  0.29574998    -0.87600
C4039       C  0.82932093  0.96205558  0.26130145     0.86300
O4040       O  0.90094726  0.93416476  0.29568747    -0.65800
O4041       O  0.75303391  0.84920218  0.27814551    -0.85100
C4042       C  0.90104411  0.92997134  0.28587070     0.87100
C4043       C  0.92038528  0.51771618  0.28701399     1.08700
H4044       H  0.82387618  0.89486730  0.27966002     0.40500
O4045       O  0.81437026  0.91039527  0.28112402    -1.07700
O4046       O  0.77226602  0.92465206  0.29544192    -0.64400
Ni4047     Ni  0.80636114  0.90727336  0.29590874     1.26300
O4048       O  0.88567803  0.94030386  0.27943771    -0.64600
O4049       O  0.76696598  0.85875763  0.29542664    -0.76900
C4050       C  0.83036910  0.91299115  0.31658208     0.86500
O4051       O  0.80336560  0.90731962  0.31108536    -0.64100
Ni4052     Ni  0.77626951  0.89573640  0.27148889     1.27400
Ni4053     Ni  0.85304489  0.95846011  0.28090015     1.26100
H4054       H  0.83992728  0.97138462  0.29808608     0.41100
O4055       O  0.86438586  0.88885961  0.40184805    -0.78900
O4056       O  0.85763284  0.91737895  0.35443503    -0.63600
O4057       O  0.84651664  0.91790389  0.38433972    -1.10200
C4058       C  0.74233149  0.80836768  0.37880799     1.08000
O4059       O  0.80104812  0.90235775  0.35262805    -0.76800
O4060       O  0.76184318  0.89369689  0.36938900    -0.64400
Ni4061     Ni  0.88479027  0.93365518  0.39399540     1.34900
C4062       C  0.76088952  0.89828298  0.37915339     0.86700
O4063       O  0.89405692  0.96777243  0.36966493    -0.77300
O4064       O  0.90801763  0.97926090  0.38689797    -0.87600
C4065       C  0.83088309  0.91058900  0.34864608     0.86300
O4066       O  0.91345230  0.91975580  0.38634114    -0.65800
O4067       O  0.74154912  0.82275054  0.37017542    -0.85100
C4068       C  0.91193491  0.90687119  0.37731217     0.87100
C4069       C  0.91152695  0.98877417  0.37724386     1.08700
H4070       H  0.82116389  0.85482968  0.36804197     0.40500
O4071       O  0.81395255  0.87179593  0.37010144    -1.07700
O4072       O  0.77507252  0.88758598  0.38589763    -0.64400
Ni4073     Ni  0.80815263  0.86978198  0.38498313     1.26300
O4074       O  0.88802766  0.90154785  0.37048872    -0.64600
O4075       O  0.76885246  0.82171419  0.38504829    -0.76900
C4076       C  0.83209410  0.86848339  0.40467190     0.86500
O4077       O  0.80662757  0.86847874  0.39984071    -0.64100
Ni4078     Ni  0.77355562  0.86316237  0.36182603     1.27400
Ni4079     Ni  0.85443401  0.91919825  0.36956785     1.26100
H4080       H  0.83692088  0.93349944  0.38555304     0.41100
O4081       O  0.92059440  0.86004029  0.18639870    -0.78900
O4082       O  0.95572961  0.85990502  0.23325723    -0.63600
O4083       O  0.95274827  0.84991735  0.20367722    -1.10200
C4084       C  0.83628788  0.75163225  0.21120883     1.08000
O4085       O  0.93713848  0.80259736  0.23554161    -0.76800
O4086       O  0.90538590  0.75126132  0.22049549    -0.64400
Ni4087     Ni  0.96130030  0.88909771  0.19485879     1.34900
C4088       C  0.91809023  0.75216898  0.21147272     0.86700
O4089       O  0.50495887  0.89771415  0.21740682    -0.77300
O4090       O  0.50444317  0.92358460  0.20218671    -0.87600
C4091       C  0.95724850  0.83526699  0.23810966     0.86300
O4092       O  0.93247761  0.90351574  0.20220603    -0.65800
O4093       O  0.84576373  0.75631876  0.22089494    -0.85100
C4094       C  0.92606921  0.90379802  0.21186935     0.87100
C4095       C  0.51868711  0.92351484  0.21091470     1.08700
H4096       H  0.89066965  0.82717751  0.21899428     0.40500
O4097       O  0.90672432  0.81802081  0.21796071    -1.07700
O4098       O  0.92398143  0.77605957  0.20460678    -0.64400
Ni4099     Ni  0.90560636  0.80883837  0.20331767     1.26300
O4100       O  0.93542836  0.88917894  0.21884869    -0.64600
O4101       O  0.85731585  0.76860580  0.20357486    -0.76900
C4102       C  0.91429694  0.83075629  0.18245111     0.86500
O4103       O  0.90772920  0.80431719  0.18830948    -0.64100
Ni4104     Ni  0.89174633  0.78070135  0.22788988     1.27400
Ni4105     Ni  0.95452346  0.85719017  0.21843612     1.26100
H4106       H  0.96995089  0.84275726  0.20187141     0.41100
O4107       O  0.89297556  0.86002643  0.09740312    -0.78900
O4108       O  0.92262440  0.85614790  0.14477180    -0.63600
O4109       O  0.92309895  0.84423157  0.11500637    -1.10200
C4110       C  0.81293461  0.73945704  0.12095398     1.08000
O4111       O  0.90807624  0.79978286  0.14655252    -0.76800
O4112       O  0.89626710  0.75763584  0.13048580    -0.64400
Ni4113     Ni  0.93809264  0.88195255  0.10521613     1.34900
C4114       C  0.90341647  0.75827709  0.12085343     0.86700
O4115       O  0.97297356  0.89249086  0.12954569    -0.77300
O4116       O  0.98393011  0.90651039  0.11229687    -0.87600
C4117       C  0.91587100  0.82944922  0.15054510     0.86300
O4118       O  0.92369190  0.91049797  0.11273614    -0.65800
O4119       O  0.82607321  0.73978555  0.12992002    -0.85100
C4120       C  0.91175530  0.90970093  0.12186561     0.87100
C4121       C  0.99371693  0.91037621  0.12194780     1.08700
H4122       H  0.85991963  0.81920671  0.13107735     0.40500
O4123       O  0.87690774  0.81180125  0.12923600    -1.07700
O4124       O  0.89449705  0.77334430  0.11391531    -0.64400
Ni4125     Ni  0.87529052  0.80509631  0.11442025     1.26300
O4126       O  0.90672330  0.88607665  0.12875037    -0.64600
O4127       O  0.82756684  0.76486591  0.11434244    -0.76900
C4128       C  0.87328633  0.82741593  0.09470641     0.86500
O4129       O  0.87450413  0.80272907  0.09960725    -0.64100
Ni4130     Ni  0.86753446  0.77189741  0.13788845     1.27400
Ni4131     Ni  0.92439742  0.85255693  0.12971244     1.26100
H4132       H  0.93914596  0.83513459  0.11385069     0.41100
O4133       O  0.62698515  0.57159780  0.18414933    -0.78900
O4134       O  0.63285483  0.59606044  0.23330944    -0.63600
O4135       O  0.64250279  0.60452971  0.20366300    -1.10200
C4136       C  0.73731748  0.57993755  0.21087664     1.08000
O4137       O  0.69050523  0.63307909  0.23565094    -0.76800
O4138       O  0.74006037  0.65229322  0.22021134    -0.64400
Ni4139     Ni  0.60054149  0.57460980  0.19558884     1.34900
C4140       C  0.74031469  0.66309425  0.21095792     0.86700
O4141       O  0.59815533  0.61023392  0.21876360    -0.77300
O4142       O  0.56726149  0.57465387  0.20556571    -0.87600
C4143       C  0.65806730  0.62110909  0.23832615     0.86300
O4144       O  0.59633756  0.53232618  0.20143735    -0.65800
O4145       O  0.73493475  0.58747548  0.22046340    -0.85100
C4146       C  0.59160050  0.52426124  0.21108995     0.87100
C4147       C  0.56954071  0.59310079  0.21354886     1.08700
H4148       H  0.66263081  0.56222836  0.21919280     0.40500
O4149       O  0.67288099  0.58747773  0.21792156    -1.07700
O4150       O  0.71722153  0.64437633  0.20395329    -0.64400
Ni4151     Ni  0.68092109  0.59378427  0.20321245     1.26300
O4152       O  0.60115897  0.54765099  0.21834571    -0.64600
O4153       O  0.71853488  0.58181565  0.20339280    -0.76900
C4154       C  0.65932159  0.58412851  0.18166126     0.86500
O4155       O  0.68509553  0.59782010  0.18819106    -0.64100
Ni4156     Ni  0.71116252  0.60925304  0.22764896     1.27400
Ni4157     Ni  0.63571875  0.59883312  0.21850792     1.26100
H4158       H  0.65127280  0.62919783  0.20180206     0.41100
O4159       O  0.63916305  0.52735179  0.09673038    -0.78900
O4160       O  0.64572800  0.56232115  0.14398376    -0.63600
O4161       O  0.65699252  0.57359981  0.11427149    -1.10200
C4162       C  0.76175730  0.57035838  0.11839397     1.08000
O4163       O  0.70409980  0.59214116  0.14772820    -0.76800
O4164       O  0.73427424  0.63065918  0.13031336    -0.64400
Ni4165     Ni  0.61845618  0.55120481  0.10467222     1.34900
C4166       C  0.73851243  0.63843033  0.12064010     0.86700
O4167       O  0.61086423  0.57746683  0.12897810    -0.77300
O4168       O  0.59487370  0.57306273  0.11188535    -0.87600
C4169       C  0.67170575  0.57748892  0.15039795     0.86300
O4170       O  0.58974086  0.50836337  0.11223396    -0.65800
O4171       O  0.76380530  0.58856612  0.12641297    -0.85100
C4172       C  0.59143013  0.99860125  0.12118017     0.87100
C4173       C  0.59227779  0.57988975  0.12152959     1.08700
H4174       H  0.68094308  0.53335405  0.13022058     0.40500
O4175       O  0.68887209  0.55785172  0.12834981    -1.07700
O4176       O  0.72866948  0.61483136  0.11344070    -0.64400
Ni4177     Ni  0.69492152  0.56343647  0.11347721     1.26300
O4178       O  0.61428448  0.51601533  0.12822815    -0.64600
O4179       O  0.73335264  0.55332489  0.11306649    -0.76900
C4180       C  0.67150094  0.53987983  0.09385675     0.86500
O4181       O  0.69672012  0.56567891  0.09865542    -0.64100
Ni4182     Ni  0.73060411  0.58881841  0.13634171     1.27400
Ni4183     Ni  0.64944447  0.56691784  0.12897976     1.26100
H4184       H  0.66667350  0.59880090  0.11304746     0.41100
O4185       O  0.93471748  0.57126822  0.18657952    -0.78900
O4186       O  0.89210814  0.53438857  0.23334410    -0.63600
O4187       O  0.88989607  0.53926763  0.20361015    -1.10200
C4188       C  0.90935508  0.65603255  0.21121965     1.08000
O4189       O  0.85440136  0.55443944  0.23517112    -0.76800
O4190       O  0.83772886  0.58716246  0.21974673    -0.64400
Ni4191     Ni  0.92214457  0.53113485  0.19542601     1.34900
C4192       C  0.82659192  0.57446241  0.21067920     0.86700
O4193       O  0.88390217  0.98946536  0.21812017    -0.77300
O4194       O  0.91703602  0.99360915  0.20408721    -0.87600
C4195       C  0.86626887  0.53405062  0.23804621     0.86300
O4196       O  0.96394069  0.56086373  0.20325220    -0.65800
O4197       O  0.90311783  0.64601639  0.22083348    -0.85100
C4198       C  0.96898531  0.56536565  0.21303109     0.87100
C4199       C  0.89953733  0.97766436  0.21228539     1.08700
H4200       H  0.92765402  0.60014652  0.21931627     0.40500
O4201       O  0.90250892  0.58457173  0.21799509    -1.07700
O4202       O  0.84527946  0.56888607  0.20394970    -0.64400
Ni4203     Ni  0.89666228  0.58665961  0.20322378     1.26300
O4204       O  0.94378222  0.55456319  0.21966524    -0.64600
O4205       O  0.90557683  0.63528188  0.20353037    -0.76900
C4206       C  0.91320145  0.57922385  0.18240489     0.86500
O4207       O  0.89260869  0.58559090  0.18804289    -0.64100
Ni4208     Ni  0.87967842  0.59987288  0.22763514     1.27400
Ni4209     Ni  0.89288799  0.53651553  0.21849147     1.26100
H4210       H  0.86585753  0.52236457  0.20142397     0.41100
O4211       O  0.97717811  0.60938260  0.09752434    -0.78900
O4212       O  0.93935752  0.57780828  0.14473630    -0.63600
O4213       O  0.92927567  0.57852114  0.11477316    -1.10200
C4214       C  0.93173737  0.68610722  0.12059008     1.08000
O4215       O  0.89619679  0.59066176  0.14621442    -0.76800
O4216       O  0.86631285  0.59963176  0.12939012    -0.64400
Ni4217     Ni  0.95275015  0.56396203  0.10512490     1.34900
C4218       C  0.86160972  0.59592989  0.11958109     0.86700
O4219       O  0.92714298  0.52847211  0.12929942    -0.77300
O4220       O  0.93031521  0.51791088  0.11202145    -0.87600
C4221       C  0.91816267  0.58328521  0.15037553     0.86300
O4222       O  0.99495597  0.57784549  0.11295055    -0.65800
O4223       O  0.91588828  0.67097258  0.12907802    -0.85100
C4224       C  0.00588679  0.59034331  0.12203842     0.87100
C4225       C  0.92374702  0.50784841  0.12163374     1.08700
H4226       H  0.96491362  0.64083355  0.13141943     0.40500
O4227       O  0.94106709  0.62354617  0.12918053    -1.07700
O4228       O  0.88713704  0.60769410  0.11303673    -0.64400
Ni4229     Ni  0.93813358  0.62625038  0.11429712     1.26300
O4230       O  0.98686591  0.59520100  0.12883149    -0.64600
O4231       O  0.94607044  0.67381959  0.11442899    -0.76900
C4232       C  0.96496693  0.62957071  0.09475154     0.86500
O4233       O  0.93881508  0.62850729  0.09945583    -0.64100
Ni4234     Ni  0.90775797  0.63036430  0.13726713     1.27400
Ni4235     Ni  0.93529525  0.57666442  0.12956147     1.26100
H4236       H  0.90419373  0.56262994  0.11344804     0.41100
O4237       O  0.77582870  0.79934568  0.06939015    -0.78900
O4238       O  0.74475654  0.76383511  0.02179643    -0.63600
O4239       O  0.74731225  0.75393737  0.05159872    -1.10200
C4240       C  0.85655631  0.76019748  0.04694889     1.08000
O4241       O  0.77737276  0.73846319  0.01773715    -0.76800
O4242       O  0.76949595  0.69903681  0.03487222    -0.64400
Ni4243     Ni  0.73129835  0.77615108  0.06134317     1.34900
C4244       C  0.76596951  0.69085095  0.04452126     0.86700
O4245       O  0.69563130  0.74793916  0.03711751    -0.77300
O4246       O  0.68565987  0.75511022  0.05413491    -0.87600
C4247       C  0.75713115  0.75041184  0.01526197     0.86300
O4248       O  0.74634547  0.81945638  0.05394568    -0.65800
O4249       O  0.84059461  0.74213740  0.03891245    -0.85100
C4250       C  0.75615434  0.82983226  0.04461691     0.87100
C4251       C  0.67532267  0.74689262  0.04459169     1.08700
H4252       H  0.81027476  0.79588029  0.03546203     0.40500
O4253       O  0.79454344  0.77113765  0.03727356    -1.07700
O4254       O  0.77930084  0.71412867  0.05182254    -0.64400
Ni4255     Ni  0.79585799  0.76526415  0.05211369     1.26300
O4256       O  0.75942493  0.81060706  0.03755472    -0.64600
O4257       O  0.84483284  0.77676309  0.05232078    -0.76900
C4258       C  0.79641240  0.78740464  0.07197164     0.86500
O4259       O  0.79623345  0.76223851  0.06692480    -0.64100
Ni4260     Ni  0.80703676  0.74180650  0.02907636     1.27400
Ni4261     Ni  0.74526635  0.76007202  0.03686491     1.26100
H4262       H  0.73230305  0.72871638  0.05291858     0.41100
O4263       O  0.72353811  0.75936275  0.98124080    -0.78900
O4264       O  0.70538711  0.73587030  0.93211275    -0.63600
O4265       O  0.70503029  0.72610392  0.96175203    -1.10200
C4266       C  0.82421248  0.74943833  0.95502306     1.08000
O4267       O  0.72556540  0.69850395  0.92982892    -0.76800
O4268       O  0.75590410  0.67872046  0.94522774    -0.64400
Ni4269     Ni  0.69358222  0.75610354  0.96994624     1.34900
C4270       C  0.74338539  0.66680098  0.95426497     0.86700
O4271       O  0.65611609  0.72160925  0.94653274    -0.77300
O4272       O  0.65997779  0.75576366  0.96007912    -0.87600
C4273       C  0.70523667  0.71063376  0.92711094     0.86300
O4274       O  0.73145183  0.79858541  0.96415306    -0.65800
O4275       O  0.81524602  0.74389323  0.94531259    -0.85100
C4276       C  0.73517759  0.80692129  0.95452917     0.87100
C4277       C  0.64417740  0.73782837  0.95198466     1.08700
H4278       H  0.76847000  0.76878196  0.94672306     0.40500
O4279       O  0.75316224  0.74343658  0.94775403    -1.07700
O4280       O  0.73769540  0.68471601  0.96120710    -0.64400
Ni4281     Ni  0.75354327  0.73542116  0.96242586     1.26300
O4282       O  0.72173299  0.78377914  0.94720591    -0.64600
O4283       O  0.80275522  0.74594189  0.96246942    -0.76900
C4284       C  0.74068858  0.74412225  0.98390091     0.86500
O4285       O  0.75185404  0.72936680  0.97743395    -0.64100
Ni4286     Ni  0.76994547  0.72216178  0.93795957     1.27400
Ni4287     Ni  0.70483548  0.73258558  0.94692978     1.26100
H4288       H  0.68853909  0.70145372  0.96347620     0.41100
O4289       O  0.53137482  0.72066618  0.06821883    -0.78900
O4290       O  0.52567045  0.75161215  0.02116111    -0.63600
O4291       O  0.51365310  0.75068751  0.05099616    -1.10200
C4292       C  0.91163289  0.64333961  0.04650375     1.08000
O4293       O  0.96882253  0.73475220  0.01952206    -0.76800
O4294       O  0.93051298  0.72797534  0.03643468    -0.64400
Ni4295     Ni  0.55148072  0.76620125  0.06074274     1.34900
C4296       C  0.92988790  0.73329661  0.04617378     0.86700
O4297       O  0.56231517  0.80103795  0.03660291    -0.77300
O4298       O  0.57422963  0.81238360  0.05393532    -0.87600
C4299       C  0.49915692  0.74612960  0.01545002     0.86300
O4300       O  0.58129855  0.75395233  0.05300256    -0.65800
O4301       O  0.91033247  0.65707415  0.03780402    -0.85100
C4302       C  0.57991209  0.74077353  0.04402662     0.87100
C4303       C  0.57888060  0.82202244  0.04427658     1.08700
H4304       H  0.98985345  0.68901759  0.03540525     0.40500
O4305       O  0.98259534  0.70605774  0.03733415    -1.07700
O4306       O  0.94397994  0.72277651  0.05299002    -0.64400
Ni4307     Ni  0.97729271  0.70529724  0.05222174     1.26300
O4308       O  0.55548089  0.73447134  0.03725416    -0.64600
O4309       O  0.93840899  0.65716931  0.05263207    -0.76900
C4310       C  0.00198543  0.70556970  0.07183602     0.86500
O4311       O  0.97629066  0.70529409  0.06707267    -0.64100
Ni4312     Ni  0.94184868  0.69663338  0.02911893     1.27400
Ni4313     Ni  0.52220595  0.75272202  0.03627622     1.26100
H4314       H  0.50402550  0.76625258  0.05221273     0.41100
O4315       O  0.52932780  0.75826957  0.97935680    -0.78900
O4316       O  0.52350995  0.79242023  0.93235937    -0.63600
O4317       O  0.51694190  0.78980668  0.96208772    -1.10200
C4318       C  0.91917180  0.67263185  0.95477839     1.08000
O4319       O  0.96608793  0.77453487  0.93090492    -0.76800
O4320       O  0.91703064  0.74184971  0.94635771    -0.64400
Ni4321     Ni  0.55715718  0.79789968  0.97035235     1.34900
C4322       C  0.91868009  0.75432735  0.95545862     0.86700
O4323       O  0.56233482  0.83903901  0.94706178    -0.77300
O4324       O  0.58918278  0.83851988  0.96211479    -0.87600
C4325       C  0.49819701  0.79324044  0.92769514     0.86300
O4326       O  0.56924676  0.76777698  0.96270466    -0.65800
O4327       O  0.92293617  0.68268506  0.94516400    -0.85100
C4328       C  0.56942229  0.76254822  0.95294961     0.87100
C4329       C  0.58862270  0.85252997  0.95338625     1.08700
H4330       H  0.99393619  0.72870258  0.94657298     0.40500
O4331       O  0.98431635  0.74417254  0.94797508    -1.07700
O4332       O  0.94296764  0.75964975  0.96216454    -0.64400
Ni4333     Ni  0.97644284  0.74164775  0.96276505     1.26300
O4334       O  0.55468191  0.77272363  0.94624889    -0.64600
O4335       O  0.93656868  0.69323914  0.96243300    -0.76900
C4336       C  0.00022362  0.74812823  0.98357141     0.86500
O4337       O  0.97347052  0.74228518  0.97791977    -0.64100
Ni4338     Ni  0.94594329  0.72898823  0.93839432     1.27400
Ni4339     Ni  0.52240695  0.79139173  0.94721569     1.26100
H4340       H  0.51017594  0.80713198  0.96412023     0.41100
O4341       O  0.69775779  0.96953212  0.06832757    -0.78900
O4342       O  0.73042348  0.97032282  0.02102802    -0.63600
O4343       O  0.74364230  0.98434031  0.05078652    -1.10200
C4344       C  0.74109249  0.59003376  0.04471231     1.08000
O4345       O  0.77629052  0.52784092  0.01992189    -0.76800
O4346       O  0.80662839  0.56941526  0.03616113    -0.64400
Ni4347     Ni  0.72146324  0.94748547  0.06082396     1.34900
C4348       C  0.81195797  0.57006961  0.04592713     0.86700
O4349       O  0.74518140  0.93525547  0.03662901    -0.77300
O4350       O  0.74342404  0.92314913  0.05401616    -0.87600
C4351       C  0.75033649  0.99720834  0.01530246     0.86300
O4352       O  0.67858416  0.91765806  0.05338346    -0.65800
O4353       O  0.75602911  0.58992640  0.03611545    -0.85100
C4354       C  0.66707036  0.91787862  0.04425551     0.87100
C4355       C  0.74889189  0.91846083  0.04439039     1.08700
H4356       H  0.70852838  0.51058303  0.03472351     0.40500
O4357       O  0.73257303  0.51751648  0.03685204    -1.07700
O4358       O  0.78702524  0.55635731  0.05264963    -0.64400
Ni4359     Ni  0.73608878  0.52422481  0.05165423     1.26300
O4360       O  0.68520386  0.94133430  0.03728776    -0.64600
O4361       O  0.72838304  0.56429879  0.05125845    -0.76900
C4362       C  0.70969800  0.50145624  0.07123475     0.86500
O4363       O  0.73577191  0.52650011  0.06647330    -0.64100
Ni4364     Ni  0.76470242  0.55697598  0.02835501     1.27400
Ni4365     Ni  0.73625865  0.97493294  0.03613097     1.26100
H4366       H  0.76883535  0.99352820  0.05189574     0.41100
O4367       O  0.72493319  0.96980738  0.97927229    -0.78900
O4368       O  0.76323058  0.96945799  0.93275688    -0.63600
O4369       O  0.76869505  0.98028926  0.96235148    -1.10200
C4370       C  0.74903620  0.57730375  0.95464675     1.08000
O4371       O  0.80051335  0.52654244  0.93098225    -0.76800
O4372       O  0.81916318  0.57779857  0.94586723    -0.64400
Ni4373     Ni  0.73785456  0.94109024  0.97114788     1.34900
C4374       C  0.83065950  0.57720418  0.95495908     0.86700
O4375       O  0.77178127  0.93272925  0.94797293    -0.77300
O4376       O  0.74772235  0.90857247  0.96361624    -0.87600
C4377       C  0.78919132  0.99395154  0.92780883     0.86300
O4378       O  0.69507499  0.92610018  0.96353088    -0.65800
O4379       O  0.75439733  0.57241299  0.94504701    -0.85100
C4380       C  0.68887194  0.92601484  0.95384259     0.87100
C4381       C  0.76095368  0.90782967  0.95475678     1.08700
H4382       H  0.72863063  0.50170520  0.94718645     0.40500
O4383       O  0.75383184  0.51112663  0.94835954    -1.07700
O4384       O  0.81231384  0.55373994  0.96190167    -0.64400
Ni4385     Ni  0.76110844  0.52058550  0.96301789     1.26300
O4386       O  0.71313378  0.94078562  0.94696076    -0.64600
O4387       O  0.75261650  0.56055136  0.96244480    -0.76900
C4388       C  0.74754818  0.49872902  0.98396817     0.86500
O4389       O  0.76700397  0.52529114  0.97807695    -0.64100
Ni4390     Ni  0.77645499  0.54818613  0.93836322     1.27400
Ni4391     Ni  0.76412225  0.97274942  0.94757573     1.26100
H4392       H  0.79300530  0.98772357  0.96430902     0.41100
C4393       C  0.75035593  0.50048976  0.99520595    -0.11300
C4394       C  0.74838733  0.99654399  0.00403273    -0.12800
C4395       C  0.89225389  0.63605659  0.95701861    -0.11300
C4396       C  0.86575734  0.60671171  0.95732011    -0.12800
C4397       C  0.62097676  0.88421796  0.95058579    -0.11300
C4398       C  0.65219878  0.90637727  0.95071030    -0.12800
C4399       C  0.87959264  0.61160115  0.04948103    -0.11300
C4400       C  0.84839223  0.58937572  0.04931089    -0.12800
C4401       C  0.60585692  0.85856174  0.04204988    -0.11300
C4402       C  0.63222995  0.88800170  0.04185697    -0.12800
C4403       C  0.99849525  0.74573292  0.99485941    -0.11300
C4404       C  0.50117327  0.74870297  0.00419287    -0.12800
C4405       C  0.86047472  0.75835631  0.95760472    -0.11300
C4406       C  0.88955557  0.76046991  0.95802015    -0.12800
C4407       C  0.61234357  0.73810823  0.94906175    -0.11300
C4408       C  0.58949845  0.74625187  0.94949153    -0.12800
C4409       C  0.74011197  0.60487196  0.95663135    -0.11300
C4410       C  0.73777904  0.63167387  0.95663381    -0.12800
C4411       C  0.75240598  0.84431139  0.95211188    -0.11300
C4412       C  0.76083509  0.87542666  0.95226694    -0.12800
C4413       C  0.88809974  0.75936768  0.04990754    -0.11300
C4414       C  0.91028524  0.75030429  0.04948671    -0.12800
C4415       C  0.63876639  0.73755008  0.04218553    -0.11300
C4416       C  0.60948320  0.73502009  0.04169800    -0.12800
C4417       C  0.74105498  0.62246122  0.04709730    -0.11300
C4418       C  0.74916580  0.65351536  0.04703313    -0.12800
C4419       C  0.75821981  0.89117799  0.04229058    -0.11300
C4420       C  0.76110787  0.86466685  0.04212685    -0.12800
C4421       C  0.74685707  0.74469553  0.99492299    -0.11300
C4422       C  0.74926377  0.74810982  0.00431523    -0.12800
C4423       C  0.98226689  0.65613973  0.08663115    -0.11300
C4424       C  0.99370677  0.67965841  0.08009379    -0.12800
C4425       C  0.91401432  0.58135038  0.17110584    -0.11300
C4426       C  0.91727589  0.58091757  0.16167047    -0.12800
C4427       C  0.56527490  0.58921701  0.12403605    -0.11300
C4428       C  0.53854081  0.59167364  0.12435778    -0.12800
C4429       C  0.82533893  0.57965293  0.11593137    -0.11300
C4430       C  0.79421375  0.57119265  0.11545289    -0.12800
C4431       C  0.68050896  0.52272288  0.08568705    -0.11300
C4432       C  0.69228420  0.51080800  0.07924079    -0.12800
C4433       C  0.66541330  0.58216115  0.17073437    -0.11300
C4434       C  0.66580563  0.57892310  0.16136466    -0.12800
C4435       C  0.76442658  0.57058546  0.20846483    -0.11300
C4436       C  0.79132759  0.56836403  0.20815066    -0.12800
C4437       C  0.53714648  0.59221810  0.21666213    -0.11300
C4438       C  0.50595680  0.58372850  0.21645390    -0.12800
C4439       C  0.90642087  0.93929682  0.12434921    -0.11300
C4440       C  0.90970895  0.96883271  0.12405662    -0.12800
C4441       C  0.92114000  0.73927707  0.11784150    -0.11300
C4442       C  0.93071870  0.71755807  0.11781518    -0.12800
C4443       C  0.53302657  0.93660939  0.12350531    -0.11300
C4444       C  0.56214885  0.96344594  0.12366638    -0.12800
C4445       C  0.78097747  0.70697812  0.11818731    -0.11300
C4446       C  0.75845087  0.67575133  0.11803155    -0.12800
C4447       C  0.84672211  0.81733411  0.08654978    -0.11300
C4448       C  0.82294745  0.80470260  0.08009857    -0.12800
C4449       C  0.57336194  0.98709534  0.21368159    -0.11300
C4450       C  0.55082477  0.95590624  0.21355388    -0.12800
C4451       C  0.77041246  0.69786227  0.20852418    -0.11300
C4452       C  0.79986525  0.72429144  0.20887539    -0.12800
C4453       C  0.89997510  0.94578212  0.21502368    -0.11300
C4454       C  0.90894518  0.92353045  0.21487235    -0.12800
C4455       C  0.92325893  0.72246613  0.20901976    -0.11300
C4456       C  0.91974953  0.69284319  0.20908097    -0.12800
C4457       C  0.91680337  0.83142664  0.16178412    -0.11300
C4458       C  0.91472852  0.82887253  0.17122028    -0.12800
C4459       C  0.83819018  0.98800732  0.25300759    -0.11300
C4460       C  0.84896148  0.50814470  0.24632530    -0.12800
C4461       C  0.83292388  0.91246231  0.33735016    -0.11300
C4462       C  0.82964656  0.91153599  0.32789352    -0.12800
C4463       C  0.94080918  0.90032139  0.37492642    -0.11300
C4464       C  0.96982064  0.90243213  0.37536222    -0.12800
C4465       C  0.74059918  0.91448269  0.38252500    -0.11300
C4466       C  0.71794908  0.92294570  0.38284614    -0.12800
C4467       C  0.68924850  0.92266181  0.29105705    -0.11300
C4468       C  0.71856396  0.92517761  0.29134906    -0.12800
C4469       C  0.94406526  0.90584547  0.28151943    -0.11300
C4470       C  0.92144370  0.91434488  0.28205653    -0.12800
C4471       C  0.58011180  0.91521836  0.33782450    -0.11300
C4472       C  0.57704197  0.91154917  0.32845068    -0.09200
C4473       C  0.50769431  0.85763052  0.25243660    -0.11300
C4474       C  0.98463270  0.84531271  0.24601277    -0.12800
C4475       C  0.93676034  0.52430494  0.37508372    -0.11300
C4476       C  0.96250023  0.55416025  0.37502863    -0.12800
C4477       C  0.70999046  0.77644309  0.38159058    -0.11300
C4478       C  0.67874604  0.75410732  0.38148541    -0.12800
C4479       C  0.59198530  0.53026628  0.37510322    -0.11300
C4480       C  0.58855470  0.55645280  0.37515243    -0.12800
C4481       C  0.57957797  0.81846354  0.38125741    -0.11300
C4482       C  0.57185968  0.78750460  0.38104684    -0.12800
C4483       C  0.98451196  0.57067389  0.28390622    -0.11300
C4484       C  0.95311142  0.54894929  0.28410716    -0.12800
C4485       C  0.69759810  0.77192297  0.29004359    -0.11300
C4486       C  0.72350500  0.80164919  0.28979093    -0.12800
C4487       C  0.59078901  0.53910625  0.28523461    -0.11300
C4488       C  0.58186139  0.50783434  0.28532175    -0.12800
C4489       C  0.57185878  0.76981165  0.29000064    -0.11300
C4490       C  0.56837902  0.79600413  0.29041738    -0.12800
C4491       C  0.58039999  0.66407847  0.32767809    -0.11300
C4492       C  0.58000533  0.66145429  0.33711845    -0.12800
C4493       C  0.63717642  0.65000098  0.25298286    -0.11300
C4494       C  0.64901521  0.63808813  0.24654913    -0.12800
C4495       C  0.51008126  0.68730509  0.41819515    -0.11300
C4496       C  0.52221171  0.67539687  0.41184841    -0.12800
C4497       C  0.50274501  0.74822538  0.50314339    -0.11300
C4498       C  0.00028865  0.74755487  0.49473338    -0.12800
C4499       C  0.61606244  0.87211713  0.44887353    -0.11300
C4500       C  0.59333514  0.84102841  0.44896376    -0.12800
C4501       C  0.89351973  0.63020594  0.45714242    -0.11300
C4502       C  0.86420371  0.60368734  0.45698467    -0.12800
C4503       C  0.65538539  0.97284816  0.41307586    -0.11300
C4504       C  0.67931316  0.98471912  0.41947755    -0.12800
C4505       C  0.75388828  0.99839080  0.50455787    -0.11300
C4506       C  0.75167726  0.49913127  0.49496006    -0.12800
C4507       C  0.63939545  0.89189052  0.54124005    -0.11300
C4508       C  0.60976903  0.86566818  0.54076194    -0.12800
C4509       C  0.88576491  0.62201277  0.54720835    -0.11300
C4510       C  0.90838176  0.65329626  0.54720507    -0.12800
C4511       C  0.87037844  0.75927433  0.45776597    -0.11300
C4512       C  0.89709939  0.75673373  0.45739934    -0.12800
C4513       C  0.62407685  0.73420049  0.44892198    -0.11300
C4514       C  0.65542522  0.74354572  0.44931378    -0.12800
C4515       C  0.74333008  0.63486325  0.45684582    -0.11300
C4516       C  0.74024120  0.60541117  0.45706295    -0.12800
C4517       C  0.76327056  0.88388676  0.45146506    -0.11300
C4518       C  0.75532137  0.90691674  0.45152054    -0.12800
C4519       C  0.81198165  0.81967543  0.41965653    -0.11300
C4520       C  0.82346402  0.84278993  0.41300444    -0.12800
C4521       C  0.62991685  0.73576851  0.54125862    -0.11300
C4522       C  0.60320799  0.73832300  0.54139743    -0.12800
C4523       C  0.84196074  0.74846740  0.54993202    -0.11300
C4524       C  0.87322205  0.75735079  0.55032122    -0.12800
C4525       C  0.76245103  0.88855604  0.54190137    -0.11300
C4526       C  0.75884541  0.85886612  0.54219016    -0.12800
C4527       C  0.74531797  0.58781299  0.54871898    -0.11300
C4528       C  0.73612461  0.60988711  0.54894820    -0.12800
C4529       C  0.74828404  0.74713423  0.50423802    -0.11300
C4530       C  0.74958119  0.74668390  0.49476360    -0.12800
C4531       C  0.50708694  0.81998887  0.91964692    -0.11300
C4532       C  0.51879420  0.84397765  0.91325320    -0.12800
C4533       C  0.58637039  0.91782006  0.83836005    -0.11300
C4534       C  0.58975839  0.91859703  0.82889444    -0.12800
C4535       C  0.73100744  0.92669260  0.78916465    -0.11300
C4536       C  0.70422879  0.92916311  0.78960218    -0.12800
C4537       C  0.96144476  0.90744335  0.78534479    -0.11300
C4538       C  0.99235160  0.91504560  0.78538916    -0.12800
C4539       C  0.81778123  0.97121800  0.91346732    -0.11300
C4540       C  0.80613361  0.98364878  0.91983299    -0.12800
C4541       C  0.67545357  0.91769061  0.88406483    -0.11300
C4542       C  0.70662659  0.92654861  0.88439141    -0.12800
C4543       C  0.96004546  0.90386441  0.87391410    -0.11300
C4544       C  0.93319216  0.90617123  0.87417161    -0.12800
C4545       C  0.83348171  0.92302123  0.83719326    -0.11300
C4546       C  0.83290740  0.92108224  0.82775803    -0.12800
C4547       C  0.59001437  0.57801773  0.78315097    -0.11300
C4548       C  0.59842986  0.55533733  0.78301734    -0.12800
C4549       C  0.57644246  0.80694272  0.79097980    -0.11300
C4550       C  0.57408563  0.77781576  0.79120704    -0.12800
C4551       C  0.69955809  0.77622079  0.79040549    -0.11300
C4552       C  0.72925496  0.80217994  0.79047640    -0.12800
C4553       C  0.92527186  0.51343856  0.78549215    -0.11300
C4554       C  0.94811483  0.54458339  0.78558650    -0.12800
C4555       C  0.67904136  0.69364028  0.91886636    -0.11300
C4556       C  0.65542264  0.68158621  0.91234979    -0.12800
C4557       C  0.58399036  0.66845002  0.82804737    -0.11300
C4558       C  0.58074385  0.66477102  0.83746677    -0.12800
C4559       C  0.93665681  0.53346038  0.87636880    -0.11300
C4560       C  0.96578235  0.56025214  0.87657667    -0.12800
C4561       C  0.74044890  0.82206379  0.87954108    -0.11300
C4562       C  0.71744448  0.79105734  0.87942162    -0.12800
C4563       C  0.58835452  0.52913395  0.87556218    -0.11300
C4564       C  0.59216911  0.55883052  0.87523280    -0.12800
C4565       C  0.57674943  0.75770012  0.88195732    -0.11300
C4566       C  0.56758892  0.77977161  0.88214312    -0.12800
C4567       C  0.65378935  0.51103425  0.74561285    -0.11300
C4568       C  0.64164822  0.98891628  0.75258940    -0.12800
C4569       C  0.66957385  0.57895350  0.66062762    -0.11300
C4570       C  0.67342378  0.58188451  0.67005673    -0.12800
C4571       C  0.68407199  0.67297388  0.57935489    -0.11300
C4572       C  0.67206836  0.64933822  0.58584801    -0.12800
C4573       C  0.77424476  0.69644117  0.70883487    -0.11300
C4574       C  0.80035133  0.72611799  0.70873157    -0.12800
C4575       C  0.51305217  0.92506459  0.71433773    -0.11300
C4576       C  0.54428399  0.94752504  0.71438666    -0.12800
C4577       C  0.85240672  0.86073348  0.75297247    -0.11300
C4578       C  0.86423828  0.84874138  0.74652351    -0.12800
C4579       C  0.53448369  0.93884395  0.62428038    -0.11300
C4580       C  0.56081454  0.96841466  0.62422246    -0.12800
C4581       C  0.78742490  0.71399859  0.61674614    -0.11300
C4582       C  0.81854626  0.73661615  0.61672234    -0.12800
C4583       C  0.91416124  0.82981319  0.66101463    -0.11300
C4584       C  0.91280388  0.82895831  0.67046266    -0.12800
C4585       C  0.98635846  0.80716836  0.57972970    -0.11300
C4586       C  0.97421491  0.81913997  0.58608349    -0.12800
C4587       C  0.91007410  0.95992981  0.71620900    -0.11300
C4588       C  0.91852529  0.99108355  0.71598724    -0.12800
C4589       C  0.93009760  0.70360130  0.70755143    -0.11300
C4590       C  0.92671569  0.72984273  0.70787048    -0.12800
C4591       C  0.57718360  0.58605009  0.71352901    -0.11300
C4592       C  0.55554623  0.59585671  0.71379810    -0.12800
C4593       C  0.77949093  0.57361895  0.70866110    -0.11300
C4594       C  0.80894093  0.57650459  0.70884883    -0.12800
C4595       C  0.51621773  0.65959888  0.75275781    -0.11300
C4596       C  0.99235003  0.64479279  0.74667707    -0.12800
C4597       C  0.78037076  0.56850885  0.61401903    -0.11300
C4598       C  0.75743243  0.57652931  0.61433373    -0.12800
C4599       C  0.52696401  0.58447238  0.62406831    -0.11300
C4600       C  0.55655948  0.58806599  0.62442737    -0.12800
C4601       C  0.92771776  0.70664044  0.61728821    -0.11300
C4602       C  0.91927587  0.67552217  0.61740093    -0.12800
C4603       C  0.90709042  0.93583877  0.62401275    -0.11300
C4604       C  0.90517480  0.96290187  0.62454252    -0.12800
C4605       C  0.91701544  0.58209569  0.66111573    -0.11300
C4606       C  0.92072542  0.58632066  0.67050857    -0.12800
C4607       C  0.82293485  0.51020899  0.57912659    -0.11300
C4608       C  0.84720173  0.52284476  0.58539033    -0.12800
loop_ 
_geom_bond_atom_site_label_1 
_geom_bond_atom_site_label_2 
_geom_bond_distance 
_geom_bond_site_symmetry_2 
_ccdc_geom_bond_type 
O1           Ni7   1.910       .  S
O1           C22   1.262       .  A
O2          Ni25   1.892       .  S
O2           C11   1.261       .  A
O3           Ni7   1.914       .  S
O3          Ni25   1.909       .  S
O3          Ni19   1.922       .  S
O3           H26   0.967       .  S
C4           O21   1.283       .  A
C4           O13   1.284       .  A
C4         C3447   1.452       .  S
O5          Ni24   1.967       .  S
O5           C11   1.279       .  A
O6          Ni24   1.899       .  S
O6         C1160   1.266   1_545  A
Ni7          O10   1.920       .  S
Ni7          O12   1.900       .  S
C8         O1158   1.266       .  A
C8         O1170   1.285       .  A
C8         C1148   1.455       .  S
O9          Ni25   1.918       .  S
O9           C15   1.272       .  A
O10          C15   1.272       .  A
C11        C1152   1.451       .  S
O12          C14   1.264       .  A
O13         Ni24   1.942       .  S
C14          O20   1.270       .  A
C14        C1146   1.437       .  S
C15        C1141   1.435       .  S
H16          O17   0.966       .  S
O17         Ni25   1.907       .  S
O17         Ni19   1.907       .  S
O17         Ni24   1.893       .  S
O18         Ni19   1.960       .  S
O18        C1160   1.282   1_545  A
Ni19         O23   1.936       .  S
Ni19         O21   1.939       .  S
O20         Ni25   1.939       .  S
C22          O23   1.277       .  A
C22        C1149   1.441       .  S
O27         Ni33   1.962       .  S
O27          C48   1.278       .  A
O28         Ni51   1.937       .  S
O28          C37   1.276       .  A
O29         Ni33   1.895       .  S
O29         Ni51   1.911       .  S
O29         Ni45   1.908       .  S
O29          H52   0.966       .  S
C30          O47   1.274       .  A
C30          O39   1.272       .  A
C30        C1136   1.431       .  S
O31         Ni50   1.911       .  S
O31          C37   1.262       .  A
O32         Ni50   1.898       .  S
O32          C34   1.263       .  A
Ni33         O36   1.938       .  S
Ni33         O38   1.899       .  S
C34          O44   1.271       .  A
C34        C2284   1.437   1_545  S
O35         Ni51   1.929       .  S
O35          C41   1.279       .  A
O36          C41   1.282       .  A
C37        C1150   1.441       .  S
O38          C40   1.267       .  A
O39       Ni2354   1.914   1_455  S
C40          O46   1.283       .  A
C40        C1133   1.449       .  S
C41        C1138   1.444       .  S
H42          O43   0.967       .  S
O43         Ni51   1.916       .  S
O43         Ni45   1.909       .  S
O43         Ni50   1.912       .  S
O44         Ni45   1.942       .  S
Ni45         O49   1.899       .  S
Ni45       O2351   1.913       .  S
O46         Ni51   1.959       .  S
O47       Ni2349   1.920   1_455  S
C48          O49   1.264       .  A
C48        C1140   1.453       .  S
Ni50       O2343   1.921       .  S
O53         Ni59   1.897       .  S
O53          C74   1.263       .  A
O54         Ni77   1.889       .  S
O54          C63   1.261       .  A
O55         Ni59   1.915       .  S
O55         Ni77   1.908       .  S
O55         Ni71   1.937       .  S
O55          H78   0.967       .  S
C56          O73   1.284       .  A
C56          O65   1.283       .  A
C56        C1147   1.459       .  S
O57         Ni76   1.961       .  S
O57          C63   1.277       .  A
O58         Ni76   1.898       .  S
O58        C2364   1.266       .  A
Ni59         O62   1.920       .  S
Ni59         O64   1.899       .  S
C60        O2362   1.266   1_455  A
C60        O2374   1.280   1_455  A
C60        C1123   1.449       .  S
O61         Ni77   1.920       .  S
O61          C67   1.267       .  A
O62          C67   1.266       .  A
C63        C1130   1.446       .  S
O64          C66   1.267       .  A
O65         Ni76   1.943       .  S
C66          O72   1.277       .  A
C66        C1126   1.435       .  S
C67        C1145   1.435       .  S
H68          O69   0.965       .  S
O69         Ni77   1.904       .  S
O69         Ni71   1.900       .  S
O69         Ni76   1.897       .  S
O70         Ni71   1.952       .  S
O70        C2364   1.280       .  A
Ni71         O75   1.923       .  S
Ni71         O73   1.946       .  S
O72         Ni77   1.955       .  S
C74          O75   1.276       .  A
C74        C1127   1.427       .  S
O79         Ni85   1.958       .  S
O79         C100   1.277       .  A
O80        Ni103   1.924       .  S
O80          C89   1.276       .  A
O81         Ni85   1.898       .  S
O81        Ni103   1.900       .  S
O81         Ni97   1.900       .  S
O81         H104   0.966       .  S
C82          O99   1.265       .  A
C82          O91   1.265       .  A
C82        C1131   1.434       .  S
O83        Ni102   1.894       .  S
O83          C89   1.262       .  A
O84        Ni102   1.899       .  S
O84          C86   1.267       .  A
Ni85         O88   1.940       .  S
Ni85         O90   1.902       .  S
C86          O96   1.279       .  A
C86        C3423   1.438       .  S
O87        Ni103   1.938       .  S
O87          C93   1.282       .  A
O88          C93   1.283       .  A
C89        C1128   1.427       .  S
O90          C92   1.267       .  A
O91        Ni102   1.920       .  S
C92          O98   1.280       .  A
C92        C1118   1.449       .  S
C93        C1134   1.453       .  S
H94          O95   0.967       .  S
O95        Ni103   1.939       .  S
O95         Ni97   1.909       .  S
O95        Ni102   1.917       .  S
O96         Ni97   1.961       .  S
Ni97        O101   1.890       .  S
Ni97         O99   1.916       .  S
O98        Ni103   1.954       .  S
C100        O101   1.262       .  A
C100       C1122   1.444       .  S
O105       Ni111   1.907       .  S
O105        C126   1.261       .  A
O106       Ni129   1.893       .  S
O106        C115   1.263       .  A
O107       Ni111   1.911       .  S
O107       Ni129   1.906       .  S
O107       Ni123   1.924       .  S
O107        H130   0.967       .  S
C108        O125   1.283       .  A
C108        O117   1.284       .  A
C108       C2276   1.451   1_545  S
O109       Ni128   1.961       .  S
O109        C115   1.278       .  A
O110       Ni128   1.898       .  S
O110        C112   1.266       .  A
Ni111       O114   1.917       .  S
Ni111       O116   1.896       .  S
C112        O122   1.280       .  A
C112       C1144   1.445       .  S
O113       Ni129   1.921       .  S
O113        C119   1.274       .  A
O114        C119   1.273       .  A
C115       C1116   1.447       .  S
O116        C118   1.263       .  A
O117       Ni128   1.939       .  S
C118        O124   1.270       .  A
C118       C1142   1.436       .  S
C119       C1125   1.434       .  S
H120        O121   0.966       .  S
O121       Ni129   1.908       .  S
O121       Ni123   1.906       .  S
O121       Ni128   1.892       .  S
O122       Ni123   1.953       .  S
Ni123       O127   1.936       .  S
Ni123       O125   1.940       .  S
O124       Ni129   1.938       .  S
C126        O127   1.275       .  A
C126       C1113   1.440       .  S
O131       Ni137   1.958       .  S
O131        C152   1.277       .  A
O132       Ni155   1.937       .  S
O132        C141   1.276       .  A
O133       Ni137   1.894       .  S
O133       Ni155   1.908       .  S
O133       Ni149   1.911       .  S
O133        H156   0.966       .  S
C134        O151   1.273       .  A
C134        O143   1.272       .  A
C134       C1120   1.433       .  S
O135       Ni154   1.907       .  S
O135        C141   1.261       .  A
O136       Ni154   1.898       .  S
O136        C138   1.264       .  A
Ni137       O140   1.937       .  S
Ni137       O142   1.897       .  S
C138        O148   1.269       .  A
C138       C1135   1.434       .  S
O139       Ni155   1.943       .  S
O139        C145   1.284       .  A
O140        C145   1.282       .  A
C141       C1114   1.440       .  S
O142        C144   1.266       .  A
O143      Ni1306   1.918       .  S
C144        O150   1.278       .  A
C144       C1137   1.440       .  S
C145       C1117   1.452       .  S
H146        O147   0.967       .  S
O147       Ni155   1.923       .  S
O147       Ni149   1.906       .  S
O147       Ni154   1.911       .  S
O148       Ni149   1.935       .  S
Ni149       O153   1.895       .  S
Ni149      O1303   1.922   1_545  S
O150       Ni155   1.947       .  S
O151      Ni1301   1.917       .  S
C152        O153   1.263       .  A
C152       C1111   1.447       .  S
Ni154      O1295   1.919   1_545  S
O157       Ni163   1.908       .  S
O157        C178   1.261       .  A
O158       Ni181   1.894       .  S
O158        C167   1.263       .  A
O159       Ni163   1.913       .  S
O159       Ni181   1.909       .  S
O159       Ni175   1.925       .  S
O159        H182   0.967       .  S
C160        O177   1.284       .  A
C160        O169   1.283       .  A
C160       C3408   1.451   1_455  S
O161       Ni180   1.958       .  S
O161        C167   1.276       .  A
O162       Ni180   1.898       .  S
O162        C164   1.266       .  A
Ni163       O166   1.922       .  S
Ni163       O168   1.895       .  S
C164        O174   1.278       .  A
C164       C1108   1.443       .  S
O165       Ni181   1.917       .  S
O165        C171   1.271       .  A
O166        C171   1.272       .  A
C167       C1100   1.447       .  S
O168        C170   1.263       .  A
O169       Ni180   1.935       .  S
C170        O176   1.272       .  A
C170       C1109   1.436       .  S
C171       C1106   1.435       .  S
H172        O173   0.966       .  S
O173       Ni181   1.907       .  S
O173       Ni175   1.906       .  S
O173       Ni180   1.896       .  S
O174       Ni175   1.949       .  S
Ni175       O179   1.934       .  S
Ni175       O177   1.943       .  S
O176       Ni181   1.944       .  S
C178        O179   1.275       .  A
C178       C1102   1.437       .  S
O183       Ni189   1.960       .  S
O183        C204   1.277       .  A
O184       Ni207   1.934       .  S
O184        C193   1.275       .  A
O185       Ni189   1.894       .  S
O185       Ni207   1.907       .  S
O185       Ni201   1.906       .  S
O185        H208   0.966       .  S
C186        O203   1.273       .  A
C186        O195   1.273       .  A
C186       C1098   1.433       .  S
O187       Ni206   1.906       .  S
O187        C193   1.260       .  A
O188       Ni206   1.895       .  S
O188        C190   1.263       .  A
Ni189       O192   1.937       .  S
Ni189       O194   1.899       .  S
C190        O200   1.269       .  A
C190       C1091   1.432       .  S
O191       Ni207   1.939       .  S
O191        C197   1.283       .  A
O192        C197   1.283       .  A
C193       C1101   1.438       .  S
O194        C196   1.266       .  A
O195      Ni2510   1.916       .  S
C196        O202   1.279       .  A
C196       C1094   1.445       .  S
C197       C1095   1.449       .  S
H198        O199   0.967       .  S
O199       Ni207   1.922       .  S
O199       Ni201   1.906       .  S
O199       Ni206   1.911       .  S
O200       Ni201   1.934       .  S
Ni201       O205   1.890       .  S
Ni201      O2507   1.913   1_455  S
O202       Ni207   1.951       .  S
O203      Ni2505   1.919       .  S
C204        O205   1.261       .  A
C204       C1139   1.445       .  S
Ni206      O2499   1.917   1_455  S
O209       Ni215   1.905       .  S
O209        C230   1.264       .  A
O210       Ni233   1.894       .  S
O210        C219   1.263       .  A
O211       Ni215   1.916       .  S
O211       Ni233   1.912       .  S
O211       Ni227   1.932       .  S
O211        H234   0.967       .  S
C212        O229   1.283       .  A
C212        O221   1.282       .  A
C212       C1088   1.453       .  S
O213       Ni232   1.958       .  S
O213        C219   1.277       .  A
O214       Ni232   1.899       .  S
O214        C216   1.266       .  A
Ni215       O218   1.922       .  S
Ni215       O220   1.899       .  S
C216        O226   1.282       .  A
C216       C2255   1.449       .  S
O217       Ni233   1.922       .  S
O217        C223   1.270       .  A
O218        C223   1.268       .  A
C219       C1083   1.447       .  S
O220        C222   1.266       .  A
O221       Ni232   1.938       .  S
C222        O228   1.275       .  A
C222       C1105   1.436       .  S
C223       C1086   1.439       .  S
H224        O225   0.966       .  S
O225       Ni233   1.908       .  S
O225       Ni227   1.903       .  S
O225       Ni232   1.897       .  S
O226       Ni227   1.957       .  S
Ni227       O231   1.925       .  S
Ni227       O229   1.943       .  S
O228       Ni233   1.952       .  S
C230        O231   1.276       .  A
C230       C1089   1.432       .  S
O235       Ni241   1.959       .  S
O235        C256   1.278       .  A
O236       Ni259   1.928       .  S
O236        C245   1.273       .  A
O237       Ni241   1.893       .  S
O237       Ni259   1.903       .  S
O237       Ni253   1.913       .  S
O237        H260   0.966       .  S
C238        O255   1.276       .  A
C238        O247   1.273       .  A
C238       C1081   1.437       .  S
O239       Ni258   1.906       .  S
O239        C245   1.260       .  A
O240       Ni258   1.896       .  S
O240        C242   1.263       .  A
Ni241       O244   1.943       .  S
Ni241       O246   1.900       .  S
C242        O252   1.268       .  A
C242       C2249   1.432       .  S
O243       Ni259   1.937       .  S
O243        C249   1.281       .  A
O244        C249   1.284       .  A
C245       C1090   1.433       .  S
O246        C248   1.267       .  A
O247       Ni258   1.917       .  S
C248        O254   1.280       .  A
C248       C1096   1.445       .  S
C249       C1079   1.453       .  S
H250        O251   0.967       .  S
O251       Ni259   1.923       .  S
O251       Ni253   1.903       .  S
O251       Ni258   1.911       .  S
O252       Ni253   1.932       .  S
Ni253       O257   1.892       .  S
Ni253       O255   1.927       .  S
O254       Ni259   1.951       .  S
C256        O257   1.263       .  A
C256       C1121   1.444       .  S
O261       Ni267   1.907       .  S
O261        C282   1.260       .  A
O262       Ni285   1.895       .  S
O262        C271   1.263       .  A
O263       Ni267   1.911       .  S
O263       Ni285   1.905       .  S
O263       Ni279   1.921       .  S
O263        H286   0.966       .  S
C264        O281   1.282       .  A
C264        O273   1.283       .  A
C264       C2259   1.448       .  S
O265       Ni284   1.957       .  S
O265        C271   1.277       .  A
O266       Ni284   1.900       .  S
O266        C268   1.266   1_455  A
Ni267       O270   1.921       .  S
Ni267       O272   1.899       .  S
C268        O278   1.282   1_655  A
C268       C3391   1.450       .  S
O269       Ni285   1.919       .  S
O269        C275   1.274       .  A
O270        C275   1.274       .  A
C271       C1076   1.446       .  S
O272        C274   1.263       .  A
O273       Ni284   1.937       .  S
C274        O280   1.271       .  A
C274       C1085   1.441       .  S
C275       C1110   1.435       .  S
H276        O277   0.966       .  S
O277       Ni285   1.910       .  S
O277       Ni279   1.907       .  S
O277       Ni284   1.893       .  S
O278       Ni279   1.960       .  S
Ni279       O283   1.934       .  S
Ni279       O281   1.936       .  S
O280       Ni285   1.943       .  S
C282        O283   1.275       .  A
C282       C1077   1.437       .  S
O287       Ni293   1.958       .  S
O287        C308   1.277       .  A
O288       Ni311   1.934       .  S
O288        C297   1.276       .  A
O289       Ni293   1.890       .  S
O289       Ni311   1.906       .  S
O289       Ni305   1.914       .  S
O289        H312   0.966       .  S
C290        O307   1.264       .  A
C290        O299   1.267       .  A
C290       C1092   1.431       .  S
O291       Ni310   1.907       .  S
O291        C297   1.261       .  A
O292       Ni310   1.896       .  S
O292        C294   1.263       .  A
Ni293       O296   1.937       .  S
Ni293       O298   1.898       .  S
C294        O304   1.270       .  A
C294       C3386   1.434   1_455  S
O295       Ni311   1.938       .  S
O295        C301   1.281       .  A
O296        C301   1.282       .  A
C297       C1078   1.437       .  S
O298        C300   1.266       .  A
O299      Ni1462   1.923   1_545  S
C300        O306   1.284       .  A
C300       C1080   1.448       .  S
C301       C1093   1.448       .  S
H302        O303   0.967       .  S
O303       Ni311   1.921       .  S
O303       Ni305   1.906       .  S
O303       Ni310   1.910       .  S
O304       Ni305   1.939       .  S
Ni305       O309   1.897       .  S
Ni305      O1459   1.923       .  S
O306       Ni311   1.960       .  S
O307      Ni1457   1.910   1_545  S
C308        O309   1.264       .  A
C308       C1112   1.448       .  S
Ni310      O1451   1.920       .  S
O313       Ni319   1.908       .  S
O313        C334   1.261       .  A
O314       Ni337   1.894       .  S
O314        C323   1.263       .  A
O315       Ni319   1.912       .  S
O315       Ni337   1.908       .  S
O315       Ni331   1.925       .  S
O315        H338   0.966       .  S
C316        O333   1.283       .  A
C316        O325   1.283       .  A
C316       C1070   1.450       .  S
O317       Ni336   1.959       .  S
O317        C323   1.277       .  A
O318       Ni336   1.899       .  S
O318        C320   1.266       .  A
Ni319       O322   1.922       .  S
Ni319       O324   1.895       .  S
C320        O330   1.280       .  A
C320       C1065   1.444       .  S
O321       Ni337   1.923       .  S
O321        C327   1.274       .  A
O322        C327   1.273       .  A
C323       C1115   1.447       .  S
O324        C326   1.263       .  A
O325       Ni336   1.937       .  S
C326        O332   1.270       .  A
C326       C1067   1.434       .  S
C327       C1072   1.439       .  S
H328        O329   0.966       .  S
O329       Ni337   1.910       .  S
O329       Ni331   1.905       .  S
O329       Ni336   1.893       .  S
O330       Ni331   1.952       .  S
Ni331       O335   1.935       .  S
Ni331       O333   1.941       .  S
O332       Ni337   1.938       .  S
C334        O335   1.276       .  A
C334       C1073   1.438       .  S
O339       Ni345   1.960       .  S
O339        C360   1.277       .  A
O340       Ni363   1.934       .  S
O340        C349   1.276       .  A
O341       Ni345   1.894       .  S
O341       Ni363   1.907       .  S
O341       Ni357   1.907       .  S
O341        H364   0.966       .  S
C342        O359   1.272       .  A
C342        O351   1.272       .  A
C342       C1061   1.433       .  S
O343       Ni362   1.909       .  S
O343        C349   1.261       .  A
O344       Ni362   1.896       .  S
O344        C346   1.263       .  A
Ni345       O348   1.937       .  S
Ni345       O350   1.899       .  S
C346        O356   1.270       .  A
C346       C1058   1.434       .  S
O347       Ni363   1.937       .  S
O347        C353   1.282       .  A
O348        C353   1.283       .  A
C349       C1074   1.438       .  S
O350        C352   1.266       .  A
O351       Ni362   1.919       .  S
C352        O358   1.280       .  A
C352       C1055   1.445       .  S
C353       C1059   1.448       .  S
H354        O355   0.966       .  S
O355       Ni363   1.919       .  S
O355       Ni357   1.909       .  S
O355       Ni362   1.911       .  S
O356       Ni357   1.941       .  S
Ni357       O361   1.894       .  S
Ni357       O359   1.916       .  S
O358       Ni363   1.953       .  S
C360        O361   1.262       .  A
C360       C1063   1.447       .  S
O365       Ni371   1.911       .  S
O365       C1538   1.263   1_545  A
O366       Ni389   1.900       .  S
O366        C375   1.265   1_545  A
O367       Ni371   1.910       .  S
O367       Ni389   1.910       .  S
O367      Ni1535   1.918   1_545  S
O367        H390   0.967       .  S
C368        O385   1.282       .  A
C368        O377   1.283       .  A
C368       C1051   1.451       .  S
O369       Ni388   1.954       .  S
O369       C1527   1.277       .  A
O370       Ni388   1.901       .  S
O370        C372   1.267       .  A
Ni371       O374   1.924       .  S
Ni371       O376   1.896       .  S
C372        O382   1.280       .  A
C372       C1069   1.447       .  S
O373       Ni389   1.906       .  S
O373        C379   1.268       .  A
O374        C379   1.272       .  A
C375       O1521   1.276       .  A
C375       C1151   1.452   1_565  S
O376        C378   1.264       .  A
O377       Ni388   1.937       .  S
C378        O384   1.276       .  A
C378       C1071   1.439       .  S
C379       C1053   1.429       .  S
H380        O381   0.966       .  S
O381       Ni383   1.905       .  S
O381       Ni388   1.893       .  S
O381      Ni1541   1.915       .  S
O382       Ni383   1.952       .  S
Ni383       O387   1.932       .  S
Ni383       O385   1.940       .  S
Ni383      O1519   1.925       .  S
O384       Ni389   1.955       .  S
C386        O387   1.274       .  A
C386       O1517   1.260       .  A
C386       C1049   1.438       .  S
Ni389      O1533   1.902   1_545  S
O391       Ni397   1.961       .  S
O391       C1564   1.277   1_545  A
O392       Ni415   1.933       .  S
O392        C401   1.274   1_545  A
O393       Ni397   1.894       .  S
O393       Ni415   1.907       .  S
O393      Ni1561   1.908   1_545  S
O393        H416   0.966       .  S
C394        O411   1.273       .  A
C394        O403   1.272       .  A
C394       C1043   1.439       .  S
O395       Ni414   1.909       .  S
O395       C1553   1.261       .  A
O396       Ni414   1.895       .  S
O396        C398   1.263       .  A
Ni397       O400   1.939       .  S
Ni397       O402   1.898       .  S
C398        O408   1.270       .  A
C398       C1062   1.434       .  S
O399       Ni415   1.935       .  S
O399        C405   1.281       .  A
O400        C405   1.283       .  A
C401       O1547   1.260       .  A
C401       C1050   1.438       .  S
O402        C404   1.266       .  A
O403       Ni414   1.921       .  S
C404        O410   1.280       .  A
C404       C1060   1.444       .  S
C405       C1046   1.448       .  S
H406        O407   0.967       .  S
O407       Ni409   1.909       .  S
O407       Ni414   1.914       .  S
O407      Ni1567   1.925       .  S
O408       Ni409   1.937       .  S
Ni409       O413   1.893       .  S
Ni409       O411   1.924       .  S
Ni409      O1545   1.912       .  S
O410       Ni415   1.952       .  S
C412        O413   1.263       .  A
C412       O1543   1.277       .  A
C412       C1048   1.445       .  S
Ni415      O1559   1.920   1_545  S
O417       Ni423   1.903       .  S
O417       C2742   1.259       .  A
O418       Ni441   1.889       .  S
O418        C427   1.262       .  A
O419       Ni423   1.910       .  S
O419       Ni441   1.904       .  S
O419      Ni2739   1.924       .  S
O419        H442   0.967       .  S
C420        O437   1.281       .  A
C420        O429   1.283       .  A
C420       C1066   1.448       .  S
O421       Ni440   1.956       .  S
O421       C2731   1.277   1_455  A
O422       Ni440   1.898       .  S
O422        C424   1.267       .  A
Ni423       O426   1.916       .  S
Ni423       O428   1.891       .  S
C424        O434   1.282       .  A
C424       C1052   1.447       .  S
O425       Ni441   1.920       .  S
O425        C431   1.273       .  A
O426        C431   1.272       .  A
C427       O2725   1.278       .  A
C427       C1129   1.446       .  S
O428        C430   1.262       .  A
O429       Ni440   1.937       .  S
C430        O436   1.269       .  A
C430       C1054   1.429       .  S
C431       C1068   1.433       .  S
H432        O433   0.966       .  S
O433       Ni435   1.907       .  S
O433       Ni440   1.892       .  S
O433      Ni2745   1.912   1_455  S
O434       Ni435   1.956       .  S
Ni435       O439   1.936       .  S
Ni435       O437   1.936       .  S
Ni435      O2723   1.920   1_455  S
O436       Ni441   1.934       .  S
C438        O439   1.276   1_655  A
C438       O2721   1.261       .  A
C438       C1041   1.440       .  S
Ni441      O2737   1.909       .  S
O443       Ni449   1.959       .  S
O443       C2768   1.277       .  A
O444       Ni467   1.926       .  S
O444        C453   1.275       .  A
O445       Ni449   1.895       .  S
O445       Ni467   1.904       .  S
O445      Ni2765   1.905       .  S
O445        H468   0.966       .  S
C446        O463   1.266       .  A
C446        O455   1.268       .  A
C446       C1057   1.434       .  S
O447       Ni466   1.903       .  S
O447       C2757   1.264       .  A
O448       Ni466   1.901       .  S
O448        C450   1.267       .  A
Ni449       O452   1.937       .  S
Ni449       O454   1.899       .  S
C450        O460   1.278       .  A
C450       C1044   1.441       .  S
O451       Ni467   1.938       .  S
O451        C457   1.282       .  A
O452        C457   1.283       .  A
C453       O2751   1.262       .  A
C453       C1042   1.429       .  S
O454        C456   1.266       .  A
O455       Ni466   1.923       .  S
C456        O462   1.280       .  A
C456       C1045   1.445       .  S
C457       C1056   1.448       .  S
H458        O459   0.967       .  S
O459       Ni461   1.913       .  S
O459       Ni466   1.916       .  S
O459      Ni2771   1.933   1_455  S
O460       Ni461   1.961       .  S
Ni461       O465   1.894       .  S
Ni461       O463   1.913       .  S
Ni461      O2749   1.899   1_455  S
O462       Ni467   1.952       .  S
C464        O465   1.263       .  A
C464       O2747   1.275   1_455  A
C464       C1039   1.444       .  S
Ni467      O2763   1.921       .  S
O469       Ni475   1.904       .  S
O469        C490   1.260       .  A
O470       Ni493   1.894       .  S
O470        C479   1.263       .  A
O471       Ni475   1.911       .  S
O471       Ni493   1.907       .  S
O471       Ni487   1.925       .  S
O471        H494   0.966       .  S
C472        O489   1.284       .  A
C472        O481   1.284       .  A
C472       C1033   1.453       .  S
O473       Ni492   1.962       .  S
O473        C479   1.278       .  A
O474       Ni492   1.898       .  S
O474        C476   1.266       .  A
Ni475       O478   1.917       .  S
Ni475       O480   1.894       .  S
C476        O486   1.277       .  A
C476       C1029   1.440       .  S
O477       Ni493   1.921       .  S
O477        C483   1.273       .  A
O478        C483   1.272       .  A
C479       C1037   1.449       .  S
O480        C482   1.263       .  A
O481       Ni492   1.940       .  S
C482        O488   1.271       .  A
C482       C3331   1.434   1_455  S
C483       C1031   1.435       .  S
H484        O485   0.966       .  S
O485       Ni493   1.909       .  S
O485       Ni487   1.906       .  S
O485       Ni492   1.893       .  S
O486       Ni487   1.944       .  S
Ni487       O491   1.934       .  S
Ni487       O489   1.943       .  S
O488       Ni493   1.938       .  S
C490        O491   1.274       .  A
C490       C1035   1.437       .  S
O495       Ni501   1.959       .  S
O495        C516   1.277       .  A
O496       Ni519   1.932       .  S
O496        C505   1.275       .  A
O497       Ni501   1.895       .  S
O497       Ni519   1.905       .  S
O497       Ni513   1.908       .  S
O497        H520   0.966       .  S
C498        O515   1.273       .  A
C498        O507   1.272       .  A
C498       C1026   1.435       .  S
O499       Ni518   1.908       .  S
O499        C505   1.261       .  A
O500       Ni518   1.896       .  S
O500        C502   1.263       .  A
Ni501       O504   1.936       .  S
Ni501       O506   1.899       .  S
C502        O512   1.270       .  A
C502       C1022   1.435       .  S
O503       Ni519   1.938       .  S
O503        C509   1.282       .  A
O504        C509   1.283       .  A
C505       C1036   1.437       .  S
O506        C508   1.266   1_455  A
O507       Ni518   1.920       .  S
C508        O514   1.279   1_655  A
C508       C3324   1.443       .  S
C509       C1024   1.448       .  S
H510        O511   0.966       .  S
O511       Ni519   1.922       .  S
O511       Ni513   1.907       .  S
O511       Ni518   1.911       .  S
O512       Ni513   1.937       .  S
Ni513       O517   1.890       .  S
Ni513       O515   1.919       .  S
O514       Ni519   1.949       .  S
C516        O517   1.261       .  A
C516       C1040   1.443       .  S
O521       Ni527   1.907       .  S
O521        C542   1.263       .  A
O522       Ni545   1.890       .  S
O522        C531   1.261       .  A
O523       Ni527   1.915       .  S
O523       Ni545   1.909       .  S
O523       Ni539   1.923       .  S
O523        H546   0.967       .  S
C524        O541   1.282       .  A
C524        O533   1.283       .  A
C524       C1011   1.449       .  S
O525       Ni544   1.960       .  S
O525        C531   1.277       .  A
O526       Ni544   1.901       .  S
O526        C528   1.266       .  A
Ni527       O532   1.898       .  S
Ni527      O2834   1.923   1_455  S
C528        O538   1.281       .  A
C528       C1034   1.450       .  S
O529      Ni2849   1.921       .  S
O529        C535   1.267       .  A
O530      Ni2831   1.919       .  S
O530        C535   1.265       .  A
C531       C1017   1.445       .  S
O532        C534   1.264       .  A
O533       Ni544   1.937       .  S
C534        O540   1.272       .  A
C534       C2184   1.438       .  S
C535       C1013   1.435       .  S
H536        O537   0.966       .  S
O537       Ni545   1.906       .  S
O537       Ni539   1.903       .  S
O537       Ni544   1.895       .  S
O538       Ni539   1.957       .  S
Ni539       O543   1.922       .  S
Ni539       O541   1.939       .  S
O540       Ni545   1.947       .  S
C542        O543   1.275       .  A
C542       C1016   1.429       .  S
Ni545      O2833   1.917   1_455  S
O547       Ni553   1.958       .  S
O547        C568   1.277       .  A
O548       Ni571   1.921       .  S
O548        C557   1.275       .  A
O549       Ni553   1.895       .  S
O549       Ni571   1.900       .  S
O549       Ni565   1.904       .  S
O549        H572   0.966       .  S
C550        O567   1.269       .  A
C550        O559   1.268       .  A
C550       C1010   1.436       .  S
O551       Ni570   1.903       .  S
O551        C557   1.263       .  A
O552       Ni570   1.899       .  S
O552        C554   1.265       .  A
Ni553       O556   1.938       .  S
Ni553       O558   1.902       .  S
C554        O564   1.275       .  A
C554       C1025   1.436       .  S
O555       Ni571   1.935       .  S
O555        C561   1.281       .  A
O556        C561   1.283       .  A
C557       C1015   1.428       .  S
O558        C560   1.267       .  A
O559       Ni570   1.922       .  S
C560        O566   1.282       .  A
C560       C2175   1.452       .  S
C561       C3312   1.448   1_455  S
H562        O563   0.967       .  S
O563       Ni571   1.929       .  S
O563       Ni565   1.911       .  S
O563       Ni570   1.917       .  S
O564       Ni565   1.953       .  S
Ni565       O569   1.891       .  S
Ni565       O567   1.917       .  S
O566       Ni571   1.959       .  S
C568        O569   1.262       .  A
C568       C1047   1.444       .  S
O573       Ni579   1.912       .  S
O573        C594   1.263       .  A
O574       Ni597   1.898       .  S
O574        C583   1.263       .  A
O575       Ni579   1.912       .  S
O575       Ni597   1.911       .  S
O575       Ni591   1.916       .  S
O575        H598   0.967       .  S
C576        O593   1.280       .  A
C576        O585   1.282       .  A
C576       C1030   1.443       .  S
O577       Ni596   1.962       .  S
O577        C583   1.277       .  A
O578       Ni596   1.898       .  S
O578        C580   1.266       .  A
Ni579       O584   1.900       .  S
Ni579      O1734   1.919       .  S
C580        O590   1.281       .  A
C580       C1012   1.446       .  S
O581      Ni1749   1.914   1_545  S
O581        C587   1.270       .  A
O582      Ni1731   1.921   1_545  S
O582        C587   1.272       .  A
C583       C1003   1.452       .  S
O584        C586   1.264       .  A
O585       Ni596   1.934       .  S
C586        O592   1.271       .  A
C586       C1014   1.438       .  S
C587       C1028   1.432       .  S
H588        O589   0.966       .  S
O589       Ni597   1.905       .  S
O589       Ni591   1.910       .  S
O589       Ni596   1.894       .  S
O590       Ni591   1.955       .  S
Ni591       O595   1.935       .  S
Ni591       O593   1.933       .  S
O592       Ni597   1.942       .  S
C594        O595   1.276       .  A
C594       C1006   1.441       .  S
Ni597      O1733   1.912       .  S
O599       Ni605   1.959       .  S
O599        C620   1.277       .  A
O600       Ni623   1.935       .  S
O600        C609   1.277       .  A
O601       Ni605   1.893       .  S
O601       Ni623   1.905       .  S
O601       Ni617   1.909       .  S
O601        H624   0.966       .  S
C602        O619   1.273       .  A
C602        O611   1.272       .  A
C602       C1021   1.433       .  S
O603       Ni622   1.910       .  S
O603        C609   1.262       .  A
O604       Ni622   1.899       .  S
O604        C606   1.264       .  A
Ni605       O608   1.938       .  S
Ni605       O610   1.899       .  S
C606        O616   1.271       .  A
C606       C1009   1.438       .  S
O607       Ni623   1.939       .  S
O607        C613   1.282       .  A
O608        C613   1.283       .  A
C609       C1005   1.441       .  S
O610        C612   1.266       .  A
O611       Ni622   1.918       .  S
C612        O618   1.283       .  A
C612       C1007   1.452       .  S
C613       C2171   1.450       .  S
H614        O615   0.967       .  S
O615       Ni623   1.922       .  S
O615       Ni617   1.908       .  S
O615       Ni622   1.912       .  S
O616       Ni617   1.941       .  S
Ni617       O621   1.894       .  S
Ni617       O619   1.919       .  S
O618       Ni623   1.962       .  S
C620        O621   1.263       .  A
C620       C1064   1.447       .  S
O625       Ni631   1.906       .  S
O625        C646   1.260       .  A
O626       Ni649   1.892       .  S
O626        C635   1.263       .  A
O627       Ni631   1.909       .  S
O627       Ni649   1.904       .  S
O627       Ni643   1.925       .  S
O627        H650   0.967       .  S
C628        O645   1.284       .  A
C628        O637   1.283       .  A
C628        C996   1.453       .  S
O629       Ni648   1.958       .  S
O629        C635   1.277       .  A
O630       Ni648   1.899       .  S
O630        C632   1.266       .  A
Ni631       O636   1.894       .  S
Ni631      O2938   1.921       .  S
C632        O642   1.276       .  A
C632        C999   1.438       .  S
O633      Ni2953   1.921   1_455  S
O633        C639   1.274       .  A
O634      Ni2935   1.922   1_455  S
O634        C639   1.274       .  A
C635       C1018   1.445       .  S
O636        C638   1.263       .  A
O637       Ni648   1.938       .  S
C638        O644   1.269       .  A
C638        C998   1.432       .  S
C639        C994   1.437       .  S
H640        O641   0.966       .  S
O641       Ni649   1.910       .  S
O641       Ni643   1.903       .  S
O641       Ni648   1.893       .  S
O642       Ni643   1.942       .  S
Ni643       O647   1.931       .  S
Ni643       O645   1.945       .  S
O644       Ni649   1.935       .  S
C646        O647   1.274       .  A
C646       C1002   1.434       .  S
Ni649      O2937   1.921       .  S
O651       Ni657   1.959       .  S
O651        C672   1.278       .  A
O652       Ni675   1.930       .  S
O652        C661   1.273       .  A
O653       Ni657   1.893       .  S
O653       Ni675   1.905       .  S
O653       Ni669   1.912       .  S
O653        H676   0.966       .  S
C654        O671   1.276       .  A
C654        O663   1.272       .  A
C654        C989   1.439       .  S
O655       Ni674   1.905       .  S
O655        C661   1.260       .  A
O656       Ni674   1.893       .  S
O656        C658   1.263       .  A
Ni657       O660   1.940       .  S
Ni657       O662   1.897       .  S
C658        O668   1.269       .  A
C658        C985   1.430       .  S
O659       Ni675   1.940       .  S
O659        C665   1.282       .  A
O660        C665   1.283       .  A
C661       C1001   1.435       .  S
O662        C664   1.266       .  A
O663       Ni674   1.917       .  S
C664        O670   1.278       .  A
C664        C983   1.440       .  S
C665       C3291   1.452       .  S
H666        O667   0.967       .  S
O667       Ni675   1.925       .  S
O667       Ni669   1.906       .  S
O667       Ni674   1.911       .  S
O668       Ni669   1.932       .  S
Ni669       O673   1.893       .  S
Ni669       O671   1.927       .  S
O670       Ni675   1.946       .  S
C672        O673   1.263       .  A
C672        C991   1.446       .  S
O677       Ni683   1.901       .  S
O677        C698   1.263       .  A
O678       Ni701   1.893       .  S
O678        C687   1.262       .  A
O679       Ni683   1.917       .  S
O679       Ni701   1.911       .  S
O679       Ni695   1.934       .  S
O679        H702   0.967       .  S
C680        O697   1.282       .  A
C680        O689   1.283       .  A
C680        C979   1.454       .  S
O681       Ni700   1.963       .  S
O681        C687   1.278       .  A
O682       Ni700   1.901       .  S
O682        C684   1.267       .  A
Ni683       O686   1.923       .  S
Ni683       O688   1.900       .  S
C684        O694   1.281       .  A
C684        C995   1.450       .  S
O685       Ni701   1.917       .  S
O685        C691   1.267       .  A
O686        C691   1.267       .  A
C687       C1038   1.449       .  S
O688        C690   1.267       .  A
O689       Ni700   1.942       .  S
C690        O696   1.277       .  A
C690       C2145   1.437   1_545  S
C691        C981   1.436       .  S
H692        O693   0.966       .  S
O693       Ni701   1.903       .  S
O693       Ni695   1.903       .  S
O693       Ni700   1.898       .  S
O694       Ni695   1.957       .  S
Ni695       O699   1.927       .  S
Ni695       O697   1.940       .  S
O696       Ni701   1.957       .  S
C698        O699   1.277       .  A
C698        C977   1.433       .  S
O703       Ni709   1.960       .  S
O703        C724   1.277       .  A
O704       Ni727   1.929       .  S
O704        C713   1.277       .  A
O705       Ni709   1.900       .  S
O705       Ni727   1.903       .  S
O705       Ni721   1.903       .  S
O705        H728   0.966       .  S
C706        O723   1.267       .  A
C706        O715   1.265       .  A
C706        C974   1.437       .  S
O707       Ni726   1.897       .  S
O707        C713   1.262       .  A
O708       Ni726   1.901       .  S
O708        C710   1.268       .  A
Ni709       O712   1.942       .  S
Ni709       O714   1.898       .  S
C710        O720   1.279       .  A
C710        C990   1.440       .  S
O711       Ni727   1.940       .  S
O711        C717   1.282       .  A
O712        C717   1.283       .  A
C713        C978   1.433       .  S
O714       C1868   1.266   1_545  A
O715       Ni726   1.920       .  S
C716       O1866   1.266       .  A
C716       O1874   1.282       .  A
C716        C988   1.450       .  S
C717        C971   1.455       .  S
H718        O719   0.967       .  S
O719       Ni727   1.941       .  S
O719       Ni721   1.912       .  S
O719       Ni726   1.920       .  S
O720       Ni721   1.960       .  S
Ni721       O725   1.891       .  S
Ni721       O723   1.921       .  S
O722       Ni727   1.961       .  S
O722       C1868   1.282   1_545  A
C724        O725   1.262       .  A
C724        C975   1.445       .  S
O729       Ni735   1.910       .  S
O729        C750   1.262       .  A
O730       Ni753   1.898       .  S
O730        C739   1.264       .  A
O731       Ni735   1.910       .  S
O731       Ni753   1.907       .  S
O731       Ni747   1.917       .  S
O731        H754   0.966       .  S
C732        O749   1.281       .  A
C732        O741   1.282       .  A
C732       C1000   1.441       .  S
O733       Ni752   1.955       .  S
O733        C739   1.276       .  A
O734       Ni752   1.898       .  S
O734        C736   1.266       .  A
Ni735       O740   1.901       .  S
Ni735      O1890   1.919   1_545  S
C736        O746   1.283       .  A
C736        C980   1.450       .  S
O737      Ni1905   1.915       .  S
O737        C743   1.272       .  A
O738      Ni1887   1.919       .  S
O738        C743   1.273       .  A
C739       C1004   1.447       .  S
O740        C742   1.264       .  A
O741       Ni752   1.932       .  S
C742        O748   1.270       .  A
C742       C3286   1.438       .  S
C743        C997   1.431       .  S
H744        O745   0.966       .  S
O745       Ni753   1.907       .  S
O745       Ni747   1.908       .  S
O745       Ni752   1.891       .  S
O746       Ni747   1.961       .  S
Ni747       O751   1.940       .  S
Ni747       O749   1.932       .  S
O748       Ni753   1.941       .  S
C750        O751   1.277       .  A
C750        C969   1.445       .  S
Ni753      O1889   1.915   1_545  S
O755       Ni761   1.959       .  S
O755        C776   1.276       .  A
O756       Ni779   1.942       .  S
O756        C765   1.279       .  A
O757       Ni761   1.893       .  S
O757       Ni779   1.909       .  S
O757       Ni773   1.905       .  S
O757        H780   0.966       .  S
C758        O775   1.270       .  A
C758        O767   1.273       .  A
C758        C986   1.430       .  S
O759       Ni778   1.910       .  S
O759        C765   1.262       .  A
O760       Ni778   1.900       .  S
O760        C762   1.264       .  A
Ni761       O764   1.933       .  S
Ni761       O766   1.898       .  S
C762        O772   1.271       .  A
C762        C973   1.439       .  S
O763       Ni779   1.943       .  S
O763        C769   1.285       .  A
O764        C769   1.282       .  A
C765        C970   1.445       .  S
O766        C768   1.266       .  A
O767       Ni778   1.921       .  S
C768        O774   1.283       .  A
C768       C3276   1.451       .  S
C769       C2136   1.448   1_545  S
H770        O771   0.966       .  S
O771       Ni779   1.923       .  S
O771       Ni773   1.909       .  S
O771       Ni778   1.914       .  S
O772       Ni773   1.943       .  S
Ni773       O777   1.894       .  S
Ni773       O775   1.911       .  S
O774       Ni779   1.962       .  S
C776        O777   1.262       .  A
C776        C967   1.447       .  S
O781       Ni787   1.962       .  S
O781        C802   1.278       .  A
O782       Ni805   1.924       .  S
O782        C791   1.276       .  A
O783       Ni787   1.898       .  S
O783       Ni805   1.901       .  S
O783       Ni799   1.902       .  S
O783        H806   0.966       .  S
C784        O801   1.266       .  A
C784        O793   1.266       .  A
C784        C957   1.433       .  S
O785       Ni804   1.898       .  S
O785        C791   1.263       .  A
O786       Ni804   1.900       .  S
O786        C788   1.266       .  A
Ni787       O790   1.941       .  S
Ni787       O792   1.901       .  S
C788        O798   1.278       .  A
C788        C962   1.441       .  S
O789       Ni805   1.939       .  S
O789        C795   1.282       .  A
O790        C795   1.283       .  A
C791        C966   1.429       .  S
O792        C794   1.267       .  A
O793       Ni804   1.918       .  S
C794        O800   1.282       .  A
C794        C964   1.451       .  S
C795        C959   1.453       .  S
H796        O797   0.967       .  S
O797       Ni805   1.935       .  S
O797       Ni799   1.911       .  S
O797       Ni804   1.918       .  S
O798       Ni799   1.960       .  S
Ni799       O803   1.890       .  S
Ni799       O801   1.916       .  S
O800       Ni805   1.958       .  S
C802        O803   1.261       .  A
C802        C992   1.446       .  S
O807       Ni813   1.896       .  S
O807        C828   1.262       .  A
O808       Ni831   1.891       .  S
O808        C817   1.262       .  A
O809       Ni813   1.920       .  S
O809       Ni831   1.914       .  S
O809       Ni825   1.939       .  S
O809        H832   0.967       .  S
C810        O827   1.282       .  A
C810        O819   1.283       .  A
C810        C949   1.453       .  S
O811       Ni830   1.962       .  S
O811        C817   1.278       .  A
O812       Ni830   1.900       .  S
O812        C814   1.266       .  A
Ni813       O816   1.918       .  S
Ni813       O818   1.899       .  S
C814        O824   1.280       .  A
C814        C954   1.449       .  S
O815       Ni831   1.916       .  S
O815        C821   1.265       .  A
O816        C821   1.265       .  A
C817       C1099   1.447       .  S
O818        C820   1.267       .  A
O819       Ni830   1.941       .  S
C820        O826   1.279       .  A
C820        C955   1.440       .  S
C821        C951   1.435       .  S
H822        O823   0.966       .  S
O823       Ni831   1.899       .  S
O823       Ni825   1.901       .  S
O823       Ni830   1.899       .  S
O824       Ni825   1.957       .  S
Ni825       O829   1.925       .  S
Ni825       O827   1.939       .  S
O826       Ni831   1.960       .  S
C828        O829   1.276       .  A
C828        C965   1.429       .  S
O833       Ni839   1.957       .  S
O833       C3158   1.277       .  A
O834       Ni857   1.934       .  S
O834        C843   1.275       .  A
O835       Ni839   1.891       .  S
O835       Ni857   1.907       .  S
O835      Ni3155   1.906   1_455  S
O835        H858   0.966       .  S
C836        O853   1.274       .  A
C836        O845   1.273       .  A
C836        C943   1.433       .  S
O837       Ni856   1.909       .  S
O837       C3147   1.261       .  A
O838       Ni856   1.899       .  S
O838        C840   1.264       .  A
Ni839       O842   1.933       .  S
Ni839       O844   1.900       .  S
C840        O850   1.269       .  A
C840        C958   1.435       .  S
O841       Ni857   1.930       .  S
O841        C847   1.280       .  A
O842        C847   1.282       .  A
C843       O3141   1.261   1_455  A
C843        C948   1.438       .  S
O844        C846   1.266       .  A
O845       Ni856   1.918       .  S
C846        O852   1.282       .  A
C846        C960   1.449       .  S
C847        C945   1.440       .  S
H848        O849   0.967       .  S
O849       Ni851   1.907       .  S
O849       Ni856   1.911       .  S
O849      Ni3161   1.919       .  S
O850       Ni851   1.937       .  S
Ni851       O855   1.898       .  S
Ni851       O853   1.919       .  S
Ni851      O3139   1.909       .  S
O852       Ni857   1.959       .  S
C854        O855   1.264       .  A
C854       O3137   1.277       .  A
C854        C968   1.447       .  S
Ni857      O3153   1.916   1_455  S
O859       Ni865   1.909       .  S
O859       C3184   1.262       .  A
O860       Ni883   1.892       .  S
O860        C869   1.261   1_455  A
O861       Ni865   1.912       .  S
O861       Ni883   1.907       .  S
O861      Ni3181   1.917   1_455  S
O861        H884   0.967       .  S
C862        O879   1.282       .  A
C862        O871   1.282       .  A
C862        C939   1.447       .  S
O863       Ni882   1.955       .  S
O863       C3173   1.275       .  A
O864       Ni882   1.897       .  S
O864        C866   1.266       .  A
Ni865       O868   1.923       .  S
Ni865       O870   1.897       .  S
C866        O876   1.283       .  A
C866        C950   1.449       .  S
O867       Ni883   1.911       .  S
O867        C873   1.271       .  A
O868        C873   1.273       .  A
C869       O3167   1.276       .  A
C869       C1075   1.446   1_655  S
O870        C872   1.263       .  A
O871       Ni882   1.935       .  S
C872        O878   1.270       .  A
C872        C952   1.436       .  S
C873        C941   1.431       .  S
H874        O875   0.966       .  S
O875       Ni877   1.908       .  S
O875       Ni882   1.895       .  S
O875      Ni3187   1.909       .  S
O876       Ni877   1.960       .  S
Ni877       O881   1.937       .  S
Ni877       O879   1.936       .  S
Ni877      O3165   1.920       .  S
O878       Ni883   1.942       .  S
C880        O881   1.277       .  A
C880       O3163   1.262       .  A
C880        C947   1.442       .  S
Ni883      O3179   1.907   1_455  S
O885       Ni891   1.957       .  S
O885       C2058   1.277       .  A
O886       Ni909   1.930       .  S
O886        C895   1.273       .  A
O887       Ni891   1.893       .  S
O887       Ni909   1.904       .  S
O887      Ni2055   1.913       .  S
O887        H910   0.966       .  S
C888        O905   1.276       .  A
C888        O897   1.273       .  A
C888        C961   1.439       .  S
O889       Ni908   1.904       .  S
O889       C2047   1.259   1_545  A
O890       Ni908   1.896       .  S
O890        C892   1.264       .  A
Ni891       O894   1.938       .  S
Ni891       O896   1.897       .  S
C892        O902   1.270       .  A
C892        C944   1.434       .  S
O893       Ni909   1.947       .  S
O893        C899   1.285       .  A
O894        C899   1.283       .  A
C895       O2041   1.260       .  A
C895        C938   1.433       .  S
O896        C898   1.266       .  A
O897       Ni908   1.916       .  S
C898        O904   1.276       .  A
C898        C946   1.437       .  S
C899        C963   1.455       .  S
H900        O901   0.967       .  S
O901       Ni903   1.903       .  S
O901       Ni908   1.910       .  S
O901      Ni2061   1.928   1_545  S
O902       Ni903   1.934       .  S
Ni903       O907   1.892       .  S
Ni903       O905   1.929       .  S
Ni903      O2039   1.912   1_545  S
O904       Ni909   1.942       .  S
C906        O907   1.264       .  A
C906       O2037   1.278   1_545  A
C906        C976   1.445       .  S
Ni909      O2053   1.925       .  S
O911       Ni917   1.906       .  S
O911       C2084   1.259       .  A
O912       Ni935   1.893       .  S
O912        C921   1.263       .  A
O913       Ni917   1.913       .  S
O913       Ni935   1.906       .  S
O913      Ni2081   1.926       .  S
O913        H936   0.967       .  S
C914        O931   1.283       .  A
C914        O923   1.283       .  A
C914        C953   1.452       .  S
O915       Ni934   1.959       .  S
O915       C2073   1.277   1_545  A
O916       Ni934   1.900       .  S
O916        C918   1.266       .  A
Ni917       O920   1.921       .  S
Ni917       O922   1.891       .  S
C918        O928   1.278       .  A
C918        C940   1.444       .  S
O919       Ni935   1.925       .  S
O919        C925   1.275       .  A
O920        C925   1.273       .  A
C921       O2067   1.278       .  A
C921       C1084   1.447       .  S
O922        C924   1.262       .  A
O923       Ni934   1.939       .  S
C924        O930   1.269       .  A
C924        C942   1.432       .  S
C925        C956   1.440       .  S
H926        O927   0.966       .  S
O927       Ni929   1.902       .  S
O927       Ni934   1.893       .  S
O927      Ni2087   1.910   1_545  S
O928       Ni929   1.949       .  S
Ni929       O933   1.924       .  S
Ni929       O931   1.942       .  S
Ni929      O2065   1.925   1_545  S
O930       Ni935   1.937       .  S
C932        O933   1.272   1_565  A
C932       O2063   1.261       .  A
C932        C937   1.429   1_565  S
Ni935      O2079   1.913       .  S
C937       C2090   1.203   1_546  T
C938       C2089   1.206   1_554  T
C939        C940   1.213       .  T
C941        C942   1.204       .  T
C943        C944   1.206       .  T
C945        C946   1.208       .  T
C947       C3252   1.212   1_556  T
C948       C3251   1.209   1_454  T
C949        C950   1.216       .  T
C951        C952   1.206       .  T
C953        C954   1.216       .  T
C955        C956   1.209       .  T
C957        C958   1.206       .  T
C959        C960   1.216       .  T
C961        C962   1.209       .  T
C963        C964   1.217       .  T
C965        C966   1.204   1_556  T
C967        C968   1.213       .  T
C969        C970   1.213       .  T
C971        C972   1.217       .  T
C972       C3072   1.451       .  S
C973        C974   1.208       .  T
C975        C976   1.212       .  T
C977        C978   1.206       .  T
C979        C980   1.217       .  T
C981        C982   1.207       .  T
C982       C3046   1.437   1_455  S
C983        C984   1.210       .  T
C984       C1921   1.443       .  S
C985        C986   1.203       .  T
C987       C2969   1.453   1_455  S
C987        C988   1.216       .  T
C989        C990   1.209       .  T
C991        C992   1.213       .  T
C993       C1842   1.437       .  S
C993        C994   1.207       .  T
C995        C996   1.216       .  T
C997        C998   1.204       .  T
C999       C1000   1.209       .  T
C1001      C1002   1.207       .  T
C1003      C2156   1.216       .  T
C1004      C2155   1.213   1_545  T
C1005      C1006   1.211       .  T
C1007      C1008   1.218       .  T
C1008      C2865   1.455       .  S
C1009      C1010   1.207       .  T
C1011      C1012   1.214       .  T
C1013      C1014   1.207       .  T
C1015      C1016   1.204       .  T
C1017      C3322   1.212   1_455  T
C1018      C3321   1.212       .  T
C1019      C1765   1.449   1_545  S
C1019      C1020   1.214       .  T
C1020      C2812   1.445       .  S
C1021      C1022   1.206       .  T
C1023      C1712   1.445   1_545  S
C1023      C1024   1.213       .  T
C1025      C1026   1.206       .  T
C1027      C2786   1.432       .  S
C1027      C1028   1.205       .  T
C1029      C1030   1.210       .  T
C1031      C1032   1.206       .  T
C1032      C1686   1.436   1_545  S
C1033      C1034   1.216       .  T
C1035      C1036   1.208       .  T
C1037      C1038   1.215       .  T
C1039      C1040   1.211       .  T
C1041      C3346   1.210       .  T
C1042      C3345   1.205       .  T
C1043      C1044   1.209       .  T
C1045      C1046   1.213       .  T
C1047      C1048   1.212       .  T
C1049      C2202   1.209       .  T
C1050      C2201   1.208       .  T
C1051      C1052   1.215       .  T
C1053      C1054   1.203       .  T
C1055      C1056   1.213       .  T
C1057      C1058   1.206       .  T
C1059      C1060   1.213       .  T
C1061      C1062   1.205       .  T
C1063      C1064   1.213       .  T
C1065      C1066   1.213       .  T
C1067      C1068   1.205       .  T
C1069      C1070   1.214       .  T
C1071      C1072   1.209       .  T
C1073      C1074   1.209       .  T
C1075      C1076   1.212       .  T
C1077      C1078   1.209       .  T
C1079      C1080   1.216       .  T
C1081      C1082   1.208       .  T
C1082      C2598   1.438       .  S
C1083      C1084   1.213       .  T
C1085      C1086   1.209       .  T
C1087      C2572   1.450       .  S
C1087      C1088   1.216       .  T
C1089      C1090   1.206       .  T
C1091      C1092   1.204       .  T
C1093      C1094   1.213       .  T
C1095      C1096   1.214       .  T
C1097      C1394   1.434   1_545  S
C1097      C1098   1.205       .  T
C1099      C1100   1.213       .  T
C1101      C1102   1.209       .  T
C1103      C1368   1.448   1_545  S
C1103      C1104   1.215       .  T
C1104      C2464   1.451       .  S
C1105      C1106   1.206       .  T
C1107      C1416   1.447   1_545  S
C1107      C1108   1.212       .  T
C1109      C1110   1.206       .  T
C1111      C2264   1.213   1_545  T
C1112      C2263   1.214       .  T
C1113      C1114   1.210       .  T
C1115      C1116   1.213       .  T
C1117      C1118   1.215       .  T
C1119      C2390   1.435   1_455  S
C1119      C1120   1.205       .  T
C1121      C1122   1.211       .  T
C1123      C1124   1.215       .  T
C1124      C1260   1.452       .  S
C1125      C1126   1.206       .  T
C1127      C1128   1.203       .  T
C1129      C1130   1.212       .  T
C1131      C1132   1.206       .  T
C1132      C1186   1.435       .  S
C1133      C1134   1.216       .  T
C1135      C1136   1.205       .  T
C1137      C1138   1.210       .  T
C1139      C3444   1.212   1_455  T
C1140      C3443   1.216       .  T
C1141      C1142   1.206       .  T
C1143      C2308   1.449   1_455  S
C1143      C1144   1.214       .  T
C1145      C1146   1.207       .  T
C1147      C1148   1.220       .  T
C1149      C1150   1.211       .  T
C1151      C1152   1.216       .  T
O1153     Ni1159   1.908       .  S
O1153      C1174   1.261       .  A
O1154     Ni1177   1.891       .  S
O1154      C1163   1.262       .  A
O1155     Ni1159   1.914       .  S
O1155     Ni1177   1.906       .  S
O1155     Ni1171   1.921       .  S
O1155      H1178   0.967       .  S
C1156      O1173   1.280       .  A
C1156      O1165   1.284       .  A
C1156      C4599   1.446       .  S
O1157     Ni1176   1.958       .  S
O1157      C1163   1.277       .  A
O1158     Ni1176   1.900       .  S
Ni1159     O1162   1.919       .  S
Ni1159     O1164   1.901       .  S
C1160      C2300   1.450       .  S
O1161     Ni1177   1.925       .  S
O1161      C1167   1.276       .  A
O1162      C1167   1.273       .  A
C1163      C2304   1.442       .  S
O1164      C1166   1.264       .  A
O1165     Ni1176   1.939       .  S
C1166      O1172   1.266       .  A
C1166      C2298   1.434       .  S
C1167      C2293   1.437       .  S
H1168      O1169   0.966       .  S
O1169     Ni1177   1.910       .  S
O1169     Ni1171   1.903       .  S
O1169     Ni1176   1.889       .  S
O1170     Ni1171   1.967       .  S
Ni1171     O1175   1.933       .  S
Ni1171     O1173   1.931       .  S
O1172     Ni1177   1.931       .  S
C1174      O1175   1.275       .  A
C1174      C2301   1.438       .  S
O1179     Ni1185   1.959       .  S
O1179      C1200   1.277       .  A
O1180     Ni1203   1.933       .  S
O1180      C1189   1.275       .  A
O1181     Ni1185   1.893       .  S
O1181     Ni1203   1.908       .  S
O1181     Ni1197   1.911       .  S
O1181      H1204   0.966       .  S
C1182      O1199   1.264       .  A
C1182      O1191   1.264       .  A
C1182      C2288   1.435       .  S
O1183     Ni1202   1.908       .  S
O1183      C1189   1.261       .  A
O1184     Ni1202   1.898       .  S
O1184      C1186   1.263       .  A
Ni1185     O1188   1.940       .  S
Ni1185     O1190   1.898       .  S
C1186      O1196   1.269       .  A
O1187     Ni1203   1.931       .  S
O1187      C1193   1.279       .  A
O1188      C1193   1.283       .  A
C1189      C2302   1.438       .  S
O1190      C1192   1.266       .  A
O1191     Ni3506   1.921   1_455  S
C1192      O1198   1.282       .  A
C1192      C2285   1.448       .  S
C1193      C2290   1.447       .  S
H1194      O1195   0.967       .  S
O1195     Ni1203   1.918       .  S
O1195     Ni1197   1.908       .  S
O1195     Ni1202   1.912       .  S
O1196     Ni1197   1.939       .  S
Ni1197     O1201   1.897       .  S
Ni1197     O3503   1.921       .  S
O1198     Ni1203   1.959       .  S
O1199     Ni3501   1.918   1_455  S
C1200      O1201   1.264       .  A
C1200      C2292   1.447       .  S
Ni1202     O3495   1.918       .  S
O1205     Ni1211   1.898       .  S
O1205      C1226   1.263       .  A
O1206     Ni1229   1.891       .  S
O1206      C1215   1.261       .  A
O1207     Ni1211   1.917       .  S
O1207     Ni1229   1.911       .  S
O1207     Ni1223   1.934       .  S
O1207      H1230   0.966       .  S
C1208      O1225   1.282       .  A
C1208      O1217   1.283       .  A
C1208      C2299   1.454       .  S
O1209     Ni1228   1.961       .  S
O1209      C1215   1.277       .  A
O1210     Ni1228   1.900       .  S
O1210      C3516   1.267       .  A
Ni1211     O1214   1.918       .  S
Ni1211     O1216   1.899       .  S
C1212      O3514   1.266       .  A
C1212      O3526   1.281       .  A
C1212      C2275   1.447   1_655  S
O1213     Ni1229   1.916       .  S
O1213      C1219   1.266       .  A
O1214      C1219   1.265       .  A
C1215      C2282   1.446       .  S
O1216      C1218   1.267       .  A
O1217     Ni1228   1.940       .  S
C1218      O1224   1.278       .  A
C1218      C2278   1.438       .  S
C1219      C2297   1.431       .  S
H1220      O1221   0.966       .  S
O1221     Ni1229   1.901       .  S
O1221     Ni1223   1.904       .  S
O1221     Ni1228   1.898       .  S
O1222     Ni1223   1.956       .  S
O1222      C3516   1.281       .  A
Ni1223     O1227   1.928       .  S
Ni1223     O1225   1.940       .  S
O1224     Ni1229   1.959       .  S
C1226      O1227   1.277       .  A
C1226      C2279   1.433       .  S
O1231     Ni1237   1.962       .  S
O1231      C1252   1.277       .  A
O1232     Ni1255   1.927       .  S
O1232      C1241   1.276       .  A
O1233     Ni1237   1.898       .  S
O1233     Ni1255   1.904       .  S
O1233     Ni1249   1.904       .  S
O1233      H1256   0.965       .  S
C1234      O1251   1.267       .  A
C1234      O1243   1.267       .  A
C1234      C2283   1.436       .  S
O1235     Ni1254   1.902       .  S
O1235      C1241   1.263       .  A
O1236     Ni1254   1.901       .  S
O1236      C1238   1.267       .  A
Ni1237     O1240   1.942       .  S
Ni1237     O1242   1.896       .  S
C1238      O1248   1.277       .  A
C1238      C4575   1.438       .  S
O1239     Ni1255   1.937       .  S
O1239      C1245   1.281       .  A
O1240      C1245   1.283       .  A
C1241      C2280   1.433       .  S
O1242      C1244   1.266       .  A
O1243     Ni1254   1.922       .  S
C1244      O1250   1.281       .  A
C1244      C2270   1.445       .  S
C1245      C2286   1.452       .  S
H1246      O1247   0.967       .  S
O1247     Ni1255   1.932       .  S
O1247     Ni1249   1.912       .  S
O1247     Ni1254   1.917       .  S
O1248     Ni1249   1.956       .  S
Ni1249     O1253   1.894       .  S
Ni1249     O1251   1.917       .  S
O1250     Ni1255   1.955       .  S
C1252      O1253   1.263       .  A
C1252      C2274   1.450       .  S
O1257     Ni1263   1.906       .  S
O1257      C1278   1.261       .  A
O1258     Ni1281   1.893       .  S
O1258      C1267   1.263       .  A
O1259     Ni1263   1.910       .  S
O1259     Ni1281   1.906       .  S
O1259     Ni1275   1.927       .  S
O1259      H1282   0.967       .  S
C1260      O1277   1.284       .  A
C1260      O1269   1.283       .  A
O1261     Ni1280   1.956       .  S
O1261      C1267   1.277       .  A
O1262     Ni1280   1.899       .  S
O1262      C1264   1.266       .  A
Ni1263     O1266   1.917       .  S
Ni1263     O1268   1.899       .  S
C1264      O1274   1.280       .  A
C1264      C2296   1.446       .  S
O1265     Ni1281   1.923       .  S
O1265      C1271   1.274       .  A
O1266      C1271   1.273       .  A
C1267      C2268   1.445       .  S
O1268      C1270   1.264       .  A
O1269     Ni1280   1.936       .  S
C1270      O1276   1.270       .  A
C1270      C2294   1.438       .  S
C1271      C2277   1.436       .  S
H1272      O1273   0.966       .  S
O1273     Ni1281   1.909       .  S
O1273     Ni1275   1.904       .  S
O1273     Ni1280   1.891       .  S
O1274     Ni1275   1.954       .  S
Ni1275     O1279   1.937       .  S
Ni1275     O1277   1.944       .  S
O1276     Ni1281   1.938       .  S
C1278      O1279   1.276       .  A
C1278      C2265   1.440       .  S
O1283     Ni1289   1.963       .  S
O1283      C1304   1.278       .  A
O1284     Ni1307   1.935       .  S
O1284      C1293   1.276       .  A
O1285     Ni1289   1.893       .  S
O1285     Ni1307   1.908       .  S
O1285     Ni1301   1.909       .  S
O1285      H1308   0.966       .  S
C1286      O1303   1.274       .  A
C1286      O1295   1.273       .  A
C1286      C2272   1.436       .  S
O1287     Ni1306   1.909       .  S
O1287      C1293   1.261       .  A
O1288     Ni1306   1.898       .  S
O1288      C1290   1.263       .  A
Ni1289     O1292   1.941       .  S
Ni1289     O1294   1.895       .  S
C1290      O1300   1.269       .  A
C1290      C2287   1.436       .  S
O1291     Ni1307   1.934       .  S
O1291      C1297   1.281       .  A
O1292      C1297   1.284       .  A
C1293      C2266   1.439       .  S
O1294      C1296   1.265       .  A
C1296      O1302   1.281       .  A
C1296      C2289   1.442       .  S
C1297      C2269   1.449       .  S
H1298      O1299   0.967       .  S
O1299     Ni1307   1.918       .  S
O1299     Ni1301   1.908       .  S
O1299     Ni1306   1.911       .  S
O1300     Ni1301   1.939       .  S
Ni1301     O1305   1.893       .  S
O1302     Ni1307   1.953       .  S
C1304      O1305   1.262       .  A
C1304      C2263   1.448       .  S
O1309     Ni1315   1.906       .  S
O1309      C1330   1.260       .  A
O1310     Ni1333   1.891       .  S
O1310      C1319   1.262       .  A
O1311     Ni1315   1.910       .  S
O1311     Ni1333   1.905       .  S
O1311     Ni1327   1.924       .  S
O1311      H1334   0.967       .  S
C1312      O1329   1.284       .  A
C1312      O1321   1.283       .  A
C1312      C4560   1.448   1_455  S
O1313     Ni1332   1.960       .  S
O1313      C1319   1.277       .  A
O1314     Ni1332   1.898       .  S
O1314      C1316   1.266       .  A
Ni1315     O1318   1.922       .  S
Ni1315     O1320   1.894       .  S
C1316      O1326   1.280       .  A
C1316      C2260   1.444       .  S
O1317     Ni1333   1.920       .  S
O1317      C1323   1.273       .  A
O1318      C1323   1.274       .  A
C1319      C2252   1.446       .  S
O1320      C1322   1.263       .  A
O1321     Ni1332   1.937       .  S
C1322      O1328   1.268       .  A
C1322      C2261   1.431       .  S
C1323      C2258   1.436       .  S
H1324      O1325   0.966       .  S
O1325     Ni1333   1.907       .  S
O1325     Ni1327   1.903       .  S
O1325     Ni1332   1.890       .  S
O1326     Ni1327   1.950       .  S
Ni1327     O1331   1.935       .  S
Ni1327     O1329   1.940       .  S
O1328     Ni1333   1.933       .  S
C1330      O1331   1.275       .  A
C1330      C2254   1.437       .  S
O1335     Ni1341   1.956       .  S
O1335      C1356   1.277       .  A
O1336     Ni1359   1.934       .  S
O1336      C1345   1.275       .  A
O1337     Ni1341   1.894       .  S
O1337     Ni1359   1.906       .  S
O1337     Ni1353   1.913       .  S
O1337      H1360   0.966       .  S
C1338      O1355   1.273       .  A
C1338      O1347   1.273       .  A
C1338      C2250   1.430       .  S
O1339     Ni1358   1.906       .  S
O1339      C1345   1.261       .  A
O1340     Ni1358   1.898       .  S
O1340      C1342   1.263       .  A
Ni1341     O1344   1.936       .  S
Ni1341     O1346   1.901       .  S
C1342      O1352   1.270       .  A
C1342      C2243   1.438       .  S
O1343     Ni1359   1.943       .  S
O1343      C1349   1.283       .  A
O1344      C1349   1.282       .  A
C1345      C2253   1.437       .  S
O1346      C1348   1.267       .  A
O1347     Ni3662   1.917       .  S
C1348      O1354   1.281       .  A
C1348      C2246   1.448       .  S
C1349      C2247   1.451       .  S
H1350      O1351   0.967       .  S
O1351     Ni1359   1.925       .  S
O1351     Ni1353   1.904       .  S
O1351     Ni1358   1.911       .  S
O1352     Ni1353   1.940       .  S
Ni1353     O1357   1.893       .  S
Ni1353     O3659   1.924   1_455  S
O1354     Ni1359   1.955       .  S
O1355     Ni3657   1.917       .  S
C1356      O1357   1.263       .  A
C1356      C2291   1.444       .  S
Ni1358     O3651   1.923   1_455  S
O1361     Ni1367   1.905       .  S
O1361      C1382   1.264       .  A
O1362     Ni1385   1.891       .  S
O1362      C1371   1.262       .  A
O1363     Ni1367   1.914       .  S
O1363     Ni1385   1.909       .  S
O1363     Ni1379   1.931       .  S
O1363      H1386   0.967       .  S
C1364      O1381   1.284       .  A
C1364      O1373   1.283       .  A
C1364      C2240   1.456       .  S
O1365     Ni1384   1.961       .  S
O1365      C1371   1.278       .  A
O1366     Ni1384   1.900       .  S
O1366      C1368   1.266       .  A
Ni1367     O1370   1.923       .  S
Ni1367     O1372   1.897       .  S
C1368      O1378   1.281       .  A
O1369     Ni1385   1.919       .  S
O1369      C1375   1.270       .  A
O1370      C1375   1.269       .  A
C1371      C2235   1.446       .  S
O1372      C1374   1.265       .  A
O1373     Ni1384   1.939       .  S
C1374      O1380   1.275       .  A
C1374      C2257   1.436       .  S
C1375      C2238   1.438       .  S
H1376      O1377   0.966       .  S
O1377     Ni1385   1.906       .  S
O1377     Ni1379   1.900       .  S
O1377     Ni1384   1.895       .  S
O1378     Ni1379   1.956       .  S
Ni1379     O1383   1.924       .  S
Ni1379     O1381   1.947       .  S
O1380     Ni1385   1.952       .  S
C1382      O1383   1.276       .  A
C1382      C2241   1.430       .  S
O1387     Ni1393   1.963       .  S
O1387      C1408   1.278       .  A
O1388     Ni1411   1.927       .  S
O1388      C1397   1.274       .  A
O1389     Ni1393   1.894       .  S
O1389     Ni1411   1.905       .  S
O1389     Ni1405   1.908       .  S
O1389      H1412   0.966       .  S
C1390      O1407   1.272       .  A
C1390      O1399   1.272       .  A
C1390      C2233   1.436       .  S
O1391     Ni1410   1.905       .  S
O1391      C1397   1.260       .  A
O1392     Ni1410   1.893       .  S
O1392      C1394   1.262       .  A
Ni1393     O1396   1.940       .  S
Ni1393     O1398   1.902       .  S
C1394      O1404   1.271       .  A
O1395     Ni1411   1.934       .  S
O1395      C1401   1.281       .  A
O1396      C1401   1.283       .  A
C1397      C2242   1.431       .  S
O1398      C1400   1.267       .  A
O1399     Ni1410   1.920       .  S
C1400      O1406   1.280       .  A
C1400      C2248   1.448       .  S
C1401      C2231   1.448       .  S
H1402      O1403   0.967       .  S
O1403     Ni1411   1.921       .  S
O1403     Ni1405   1.909       .  S
O1403     Ni1410   1.914       .  S
O1404     Ni1405   1.942       .  S
Ni1405     O1409   1.894       .  S
Ni1405     O1407   1.919       .  S
O1406     Ni1411   1.952       .  S
C1408      O1409   1.263       .  A
C1408      C2273   1.449       .  S
O1413     Ni1419   1.908       .  S
O1413      C1434   1.261       .  A
O1414     Ni1437   1.892       .  S
O1414      C1423   1.261       .  A
O1415     Ni1419   1.914       .  S
O1415     Ni1437   1.912       .  S
O1415     Ni1431   1.922       .  S
O1415      H1438   0.966       .  S
C1416      O1433   1.282       .  A
C1416      O1425   1.283       .  A
O1417     Ni1436   1.963       .  S
O1417      C1423   1.277       .  A
O1418     Ni1436   1.897       .  S
O1418      C1420   1.266   1_455  A
Ni1419     O1422   1.913       .  S
Ni1419     O1424   1.898       .  S
C1420      O1430   1.281   1_655  A
C1420      C4543   1.449       .  S
O1421     Ni1437   1.914       .  S
O1421      C1427   1.270       .  A
O1422      C1427   1.271       .  A
C1423      C2228   1.448       .  S
O1424      C1426   1.264       .  A
O1425     Ni1436   1.938       .  S
C1426      O1432   1.271       .  A
C1426      C2237   1.439       .  S
C1427      C2262   1.429       .  S
H1428      O1429   0.966       .  S
O1429     Ni1437   1.902       .  S
O1429     Ni1431   1.908       .  S
O1429     Ni1436   1.895       .  S
O1430     Ni1431   1.959       .  S
Ni1431     O1435   1.938       .  S
Ni1431     O1433   1.935       .  S
O1432     Ni1437   1.941       .  S
C1434      O1435   1.277       .  A
C1434      C2229   1.442       .  S
O1439     Ni1445   1.960       .  S
O1439      C1460   1.276       .  A
O1440     Ni1463   1.937       .  S
O1440      C1449   1.280       .  A
O1441     Ni1445   1.898       .  S
O1441     Ni1463   1.906       .  S
O1441     Ni1457   1.897       .  S
O1441      H1464   0.965       .  S
C1442      O1459   1.275       .  A
C1442      O1451   1.273       .  A
C1442      C2244   1.436       .  S
O1443     Ni1462   1.900       .  S
O1443      C1449   1.264       .  A
O1444     Ni1462   1.900       .  S
O1444      C1446   1.267       .  A
Ni1445     O1448   1.937       .  S
Ni1445     O1450   1.896       .  S
C1446      O1456   1.278       .  A
C1446      C4538   1.437   1_455  S
O1447     Ni1463   1.939       .  S
O1447      C1453   1.282       .  A
O1448      C1453   1.282       .  A
C1449      C2230   1.440       .  S
O1450      C1452   1.266       .  A
C1452      O1458   1.280       .  A
C1452      C2232   1.444       .  S
C1453      C2245   1.451       .  S
H1454      O1455   0.966       .  S
O1455     Ni1463   1.935       .  S
O1455     Ni1457   1.912       .  S
O1455     Ni1462   1.916       .  S
O1456     Ni1457   1.959       .  S
Ni1457     O1461   1.893       .  S
O1458     Ni1463   1.954       .  S
C1460      O1461   1.261       .  A
C1460      C2264   1.447       .  S
O1465     Ni1471   1.904       .  S
O1465      C1486   1.260       .  A
O1466     Ni1489   1.893       .  S
O1466      C1475   1.262       .  A
O1467     Ni1471   1.913       .  S
O1467     Ni1489   1.909       .  S
O1467     Ni1483   1.922       .  S
O1467      H1490   0.966       .  S
C1468      O1485   1.282       .  A
C1468      O1477   1.282       .  A
C1468      C2222   1.443       .  S
O1469     Ni1488   1.957       .  S
O1469      C1475   1.277       .  A
O1470     Ni1488   1.901       .  S
O1470      C1472   1.266       .  A
Ni1471     O1474   1.913       .  S
Ni1471     O1476   1.898       .  S
C1472      O1482   1.284       .  A
C1472      C2217   1.454       .  S
O1473     Ni1489   1.921       .  S
O1473      C1479   1.274       .  A
O1474      C1479   1.271       .  A
C1475      C2267   1.444       .  S
O1476      C1478   1.263       .  A
O1477     Ni1488   1.933       .  S
C1478      O1484   1.270       .  A
C1478      C2219   1.437       .  S
C1479      C2224   1.432       .  S
H1480      O1481   0.966       .  S
O1481     Ni1489   1.905       .  S
O1481     Ni1483   1.905       .  S
O1481     Ni1488   1.890       .  S
O1482     Ni1483   1.964       .  S
Ni1483     O1487   1.936       .  S
Ni1483     O1485   1.934       .  S
O1484     Ni1489   1.939       .  S
C1486      O1487   1.276       .  A
C1486      C2225   1.439       .  S
O1491     Ni1497   1.959       .  S
O1491      C1512   1.276       .  A
O1492     Ni1515   1.934       .  S
O1492      C1501   1.278       .  A
O1493     Ni1497   1.897       .  S
O1493     Ni1515   1.904       .  S
O1493     Ni1509   1.900       .  S
O1493      H1516   0.966       .  S
C1494      O1511   1.266       .  A
C1494      O1503   1.266       .  A
C1494      C2213   1.434       .  S
O1495     Ni1514   1.899       .  S
O1495      C1501   1.263       .  A
O1496     Ni1514   1.901       .  S
O1496      C1498   1.267       .  A
Ni1497     O1500   1.937       .  S
Ni1497     O1502   1.898       .  S
C1498      O1508   1.278       .  A
C1498      C2210   1.438       .  S
O1499     Ni1515   1.939       .  S
O1499      C1505   1.282       .  A
O1500      C1505   1.282       .  A
C1501      C2226   1.436       .  S
O1502      C1504   1.266       .  A
O1503     Ni1514   1.921       .  S
C1504      O1510   1.281       .  A
C1504      C2207   1.448       .  S
C1505      C2211   1.450       .  S
H1506      O1507   0.966       .  S
O1507     Ni1515   1.936       .  S
O1507     Ni1509   1.912       .  S
O1507     Ni1514   1.917       .  S
O1508     Ni1509   1.958       .  S
Ni1509     O1513   1.893       .  S
Ni1509     O1511   1.916       .  S
O1510     Ni1515   1.957       .  S
C1512      O1513   1.262       .  A
C1512      C2215   1.447       .  S
O1517     Ni1523   1.906       .  S
O1518     Ni1541   1.895       .  S
O1518      C1527   1.264       .  A
O1519     Ni1523   1.912       .  S
O1519     Ni1541   1.906       .  S
O1519      H1542   0.967       .  S
C1520      O1537   1.282       .  A
C1520      O1529   1.282       .  A
C1520      C2203   1.447       .  S
O1521     Ni1540   1.959       .  S
O1522     Ni1540   1.899       .  S
O1522      C1524   1.266       .  A
Ni1523     O1526   1.918       .  S
Ni1523     O1528   1.899       .  S
C1524      O1534   1.277       .  A
C1524      C2221   1.440       .  S
O1525     Ni1541   1.930       .  S
O1525      C1531   1.277       .  A
O1526      C1531   1.272       .  A
C1527      C2303   1.443       .  S
O1528      C1530   1.264       .  A
O1529     Ni1540   1.934       .  S
C1530      O1536   1.268       .  A
C1530      C2223   1.434       .  S
C1531      C2205   1.441       .  S
H1532      O1533   0.966       .  S
O1533     Ni1535   1.907       .  S
O1533     Ni1540   1.896       .  S
O1534     Ni1535   1.945       .  S
Ni1535     O1539   1.929       .  S
Ni1535     O1537   1.938       .  S
O1536     Ni1541   1.933       .  S
C1538      O1539   1.275       .  A
C1538      C2201   1.436       .  S
O1543     Ni1549   1.958       .  S
O1544     Ni1567   1.932       .  S
O1544      C1553   1.275       .  A
O1545     Ni1549   1.896       .  S
O1545     Ni1567   1.906       .  S
O1545      H1568   0.966       .  S
C1546      O1563   1.273       .  A
C1546      O1555   1.273       .  A
C1546      C2195   1.429       .  S
O1547     Ni1566   1.906       .  S
O1548     Ni1566   1.899       .  S
O1548      C1550   1.264       .  A
Ni1549     O1552   1.939       .  S
Ni1549     O1554   1.900       .  S
C1550      O1560   1.268       .  A
C1550      C2214   1.436       .  S
O1551     Ni1567   1.941       .  S
O1551      C1557   1.282       .  A
O1552      C1557   1.283       .  A
C1553      C2202   1.437       .  S
O1554      C1556   1.267       .  A
O1555     Ni1566   1.916       .  S
C1556      O1562   1.280       .  A
C1556      C2212   1.446       .  S
C1557      C2198   1.453       .  S
H1558      O1559   0.967       .  S
O1559     Ni1561   1.903       .  S
O1559     Ni1566   1.910       .  S
O1560     Ni1561   1.935       .  S
Ni1561     O1565   1.890       .  S
Ni1561     O1563   1.915       .  S
O1562     Ni1567   1.953       .  S
C1564      O1565   1.261       .  A
C1564      C2200   1.445       .  S
O1569     Ni1575   1.899       .  S
O1569      C3894   1.263       .  A
O1570     Ni1593   1.890       .  S
O1570      C1579   1.261       .  A
O1571     Ni1575   1.919       .  S
O1571     Ni1593   1.911       .  S
O1571     Ni3891   1.937       .  S
O1571      H1594   0.967       .  S
C1572      O1589   1.284       .  A
C1572      O1581   1.283       .  A
C1572      C2218   1.458       .  S
O1573     Ni1592   1.962       .  S
O1573      C3883   1.278   1_455  A
O1574     Ni1592   1.898       .  S
O1574      C1576   1.266       .  A
Ni1575     O1578   1.922       .  S
Ni1575     O1580   1.903       .  S
C1576      O1586   1.279       .  A
C1576      C2204   1.444       .  S
O1577     Ni1593   1.916       .  S
O1577      C1583   1.266       .  A
O1578      C1583   1.266       .  A
C1579      O3877   1.276       .  A
C1579      C2281   1.446       .  S
O1580      C1582   1.268       .  A
O1581     Ni1592   1.943       .  S
C1582      O1588   1.278       .  A
C1582      C2206   1.443       .  S
C1583      C2220   1.435       .  S
H1584      O1585   0.966       .  S
O1585     Ni3897   1.904   1_455  S
O1585     Ni1587   1.901       .  S
O1585     Ni1592   1.899       .  S
O1586     Ni1587   1.952       .  S
Ni1587     O1591   1.924       .  S
Ni1587     O1589   1.946       .  S
Ni1587     O3875   1.941   1_455  S
O1588     Ni1593   1.960       .  S
C1590      O3873   1.262       .  A
C1590      O1591   1.276   1_655  A
C1590      C2193   1.428   1_655  S
Ni1593     O3889   1.901       .  S
O1595     Ni1601   1.958       .  S
O1595      C3920   1.277       .  A
O1596     Ni1619   1.933       .  S
O1596      C1605   1.276       .  A
O1597     Ni1601   1.895       .  S
O1597     Ni1619   1.905       .  S
O1597     Ni3917   1.911       .  S
O1597      H1620   0.966       .  S
C1598      O1615   1.273       .  A
C1598      O1607   1.271       .  A
C1598      C2209   1.437       .  S
O1599     Ni1618   1.902       .  S
O1599      C3909   1.259       .  A
O1600     Ni1618   1.892       .  S
O1600      C1602   1.262       .  A
Ni1601     O1604   1.938       .  S
Ni1601     O1606   1.899       .  S
C1602      O1612   1.269       .  A
C1602      C2196   1.430       .  S
O1603     Ni1619   1.940       .  S
O1603      C1609   1.283       .  A
O1604      C1609   1.283       .  A
C1605      O3903   1.261       .  A
C1605      C2194   1.436       .  S
O1606      C1608   1.266       .  A
O1607     Ni1618   1.917       .  S
C1608      O1614   1.282       .  A
C1608      C2197   1.449       .  S
C1609      C2208   1.451       .  S
H1610      O1611   0.967       .  S
O1611     Ni3923   1.923   1_455  S
O1611     Ni1613   1.908       .  S
O1611     Ni1618   1.914       .  S
O1612     Ni1613   1.936       .  S
Ni1613     O1617   1.893       .  S
Ni1613     O1615   1.922       .  S
Ni1613     O3901   1.912   1_455  S
O1614     Ni1619   1.958       .  S
C1616      O3899   1.278   1_455  A
C1616      O1617   1.262       .  A
C1616      C2191   1.448       .  S
Ni1619     O3915   1.924       .  S
O1621     Ni1627   1.904       .  S
O1621      C1642   1.259       .  A
O1622     Ni1645   1.892       .  S
O1622      C1631   1.263       .  A
O1623     Ni1627   1.911       .  S
O1623     Ni1645   1.906       .  S
O1623     Ni1639   1.929       .  S
O1623      H1646   0.966       .  S
C1624      O1641   1.285       .  A
C1624      O1633   1.284       .  A
C1624      C2185   1.452       .  S
O1625     Ni1644   1.959       .  S
O1625      C1631   1.278       .  A
O1626     Ni1644   1.898       .  S
O1626      C1628   1.266       .  A
Ni1627     O1630   1.914       .  S
Ni1627     O1632   1.896       .  S
C1628      O1638   1.281       .  A
C1628      C2181   1.446       .  S
O1629     Ni1645   1.927       .  S
O1629      C1635   1.275       .  A
O1630      C1635   1.272       .  A
C1631      C2189   1.446       .  S
O1632      C1634   1.264       .  A
O1633     Ni1644   1.938       .  S
C1634      O1640   1.270       .  A
C1634      C4483   1.435   1_455  S
C1635      C2183   1.436       .  S
H1636      O1637   0.966       .  S
O1637     Ni1645   1.908       .  S
O1637     Ni1639   1.903       .  S
O1637     Ni1644   1.889       .  S
O1638     Ni1639   1.955       .  S
Ni1639     O1643   1.938       .  S
Ni1639     O1641   1.944       .  S
O1640     Ni1645   1.935       .  S
C1642      O1643   1.276       .  A
C1642      C2187   1.439       .  S
O1647     Ni1653   1.962       .  S
O1647      C1668   1.277       .  A
O1648     Ni1671   1.935       .  S
O1648      C1657   1.276       .  A
O1649     Ni1653   1.897       .  S
O1649     Ni1671   1.907       .  S
O1649     Ni1665   1.907       .  S
O1649      H1672   0.966       .  S
C1650      O1667   1.270       .  A
C1650      O1659   1.271       .  A
C1650      C2178   1.435       .  S
O1651     Ni1670   1.908       .  S
O1651      C1657   1.262       .  A
O1652     Ni1670   1.895       .  S
O1652      C1654   1.263       .  A
Ni1653     O1656   1.940       .  S
Ni1653     O1658   1.900       .  S
C1654      O1664   1.272       .  A
C1654      C2174   1.435       .  S
O1655     Ni1671   1.945       .  S
O1655      C1661   1.285       .  A
O1656      C1661   1.284       .  A
C1657      C2188   1.438       .  S
O1658      C1660   1.266   1_455  A
O1659     Ni1670   1.923       .  S
C1660      O1666   1.278   1_655  A
C1660      C4476   1.444       .  S
C1661      C2176   1.455       .  S
H1662      O1663   0.966       .  S
O1663     Ni1671   1.926       .  S
O1663     Ni1665   1.910       .  S
O1663     Ni1670   1.915       .  S
O1664     Ni1665   1.943       .  S
Ni1665     O1669   1.893       .  S
Ni1665     O1667   1.915       .  S
O1666     Ni1671   1.949       .  S
C1668      O1669   1.262       .  A
C1668      C2192   1.448       .  S
O1673     Ni1679   1.898       .  S
O1673      C1694   1.262       .  A
O1674     Ni1697   1.890       .  S
O1674      C1683   1.261       .  A
O1675     Ni1679   1.918       .  S
O1675     Ni1697   1.912       .  S
O1675     Ni1691   1.938       .  S
O1675      H1698   0.967       .  S
C1676      O1693   1.283       .  A
C1676      O1685   1.283       .  A
C1676      C2163   1.456       .  S
O1677     Ni1696   1.961       .  S
O1677      C1683   1.278       .  A
O1678     Ni1696   1.900       .  S
O1678      C1680   1.267       .  A
Ni1679     O3986   1.918   1_455  S
Ni1679     O1684   1.900       .  S
C1680      O1690   1.280       .  A
C1680      C2186   1.449       .  S
O1681     Ni4001   1.916       .  S
O1681      C1687   1.266       .  A
O1682     Ni3983   1.917       .  S
O1682      C1687   1.265       .  A
C1683      C2169   1.446       .  S
O1684      C1686   1.267       .  A
O1685     Ni1696   1.942       .  S
C1686      O1692   1.276       .  A
C1687      C2165   1.433       .  S
H1688      O1689   0.966       .  S
O1689     Ni1697   1.904       .  S
O1689     Ni1691   1.901       .  S
O1689     Ni1696   1.898       .  S
O1690     Ni1691   1.955       .  S
Ni1691     O1695   1.924       .  S
Ni1691     O1693   1.943       .  S
O1692     Ni1697   1.953       .  S
C1694      O1695   1.276       .  A
C1694      C2168   1.429       .  S
Ni1697     O3985   1.921   1_455  S
O1699     Ni1705   1.958       .  S
O1699      C1720   1.276       .  A
O1700     Ni1723   1.923       .  S
O1700      C1709   1.275       .  A
O1701     Ni1705   1.900       .  S
O1701     Ni1723   1.904       .  S
O1701     Ni1717   1.904       .  S
O1701      H1724   0.966       .  S
C1702      O1719   1.267       .  A
C1702      O1711   1.268       .  A
C1702      C2162   1.431       .  S
O1703     Ni1722   1.903       .  S
O1703      C1709   1.263       .  A
O1704     Ni1722   1.896       .  S
O1704      C1706   1.265       .  A
Ni1705     O1708   1.938       .  S
Ni1705     O1710   1.898       .  S
C1706      O1716   1.275       .  A
C1706      C2177   1.435       .  S
O1707     Ni1723   1.935       .  S
O1707      C1713   1.280       .  A
O1708      C1713   1.282       .  A
C1709      C2167   1.429       .  S
O1710      C1712   1.266       .  A
O1711     Ni1722   1.917       .  S
C1712      O1718   1.280       .  A
C1713      C4464   1.449   1_455  S
H1714      O1715   0.967       .  S
O1715     Ni1723   1.926       .  S
O1715     Ni1717   1.912       .  S
O1715     Ni1722   1.915       .  S
O1716     Ni1717   1.952       .  S
Ni1717     O1721   1.892       .  S
Ni1717     O1719   1.913       .  S
O1718     Ni1723   1.952       .  S
C1720      O1721   1.262       .  A
C1720      C2199   1.445       .  S
O1725     Ni1731   1.911       .  S
O1725      C1746   1.262       .  A
O1726     Ni1749   1.891       .  S
O1726      C1735   1.261       .  A
O1727     Ni1731   1.916       .  S
O1727     Ni1749   1.911       .  S
O1727     Ni1743   1.922       .  S
O1727      H1750   0.967       .  S
C1728      O1745   1.282       .  A
C1728      O1737   1.283       .  A
C1728      C2182   1.450       .  S
O1729     Ni1748   1.962       .  S
O1729      C1735   1.277       .  A
O1730     Ni1748   1.898       .  S
O1730      C1732   1.266       .  A
Ni1731     O1736   1.899       .  S
C1732      O1742   1.283       .  A
C1732      C2164   1.451       .  S
O1733      C1739   1.271       .  A
O1734      C1739   1.272       .  A
C1735      C2155   1.447       .  S
O1736      C1738   1.264       .  A
O1737     Ni1748   1.938       .  S
C1738      O1744   1.269       .  A
C1738      C2166   1.435       .  S
C1739      C2180   1.430       .  S
H1740      O1741   0.966       .  S
O1741     Ni1749   1.906       .  S
O1741     Ni1743   1.907       .  S
O1741     Ni1748   1.894       .  S
O1742     Ni1743   1.962       .  S
Ni1743     O1747   1.933       .  S
Ni1743     O1745   1.937       .  S
O1744     Ni1749   1.939       .  S
C1746      O1747   1.276       .  A
C1746      C2158   1.439       .  S
O1751     Ni1757   1.961       .  S
O1751      C1772   1.278       .  A
O1752     Ni1775   1.935       .  S
O1752      C1761   1.276       .  A
O1753     Ni1757   1.892       .  S
O1753     Ni1775   1.906       .  S
O1753     Ni1769   1.908       .  S
O1753      H1776   0.966       .  S
C1754      O1771   1.273       .  A
C1754      O1763   1.273       .  A
C1754      C2173   1.435       .  S
O1755     Ni1774   1.909       .  S
O1755      C1761   1.261       .  A
O1756     Ni1774   1.897       .  S
O1756      C1758   1.263       .  A
Ni1757     O1760   1.938       .  S
Ni1757     O1762   1.899       .  S
C1758      O1768   1.269       .  A
C1758      C2161   1.434       .  S
O1759     Ni1775   1.937       .  S
O1759      C1765   1.282       .  A
O1760      C1765   1.283       .  A
C1761      C2157   1.439       .  S
O1762      C1764   1.266       .  A
O1763     Ni1774   1.920       .  S
C1764      O1770   1.283       .  A
C1764      C2159   1.450       .  S
H1766      O1767   0.967       .  S
O1767     Ni1775   1.922       .  S
O1767     Ni1769   1.908       .  S
O1767     Ni1774   1.914       .  S
O1768     Ni1769   1.937       .  S
Ni1769     O1773   1.893       .  S
Ni1769     O1771   1.918       .  S
O1770     Ni1775   1.960       .  S
C1772      O1773   1.262       .  A
C1772      C2216   1.447       .  S
O1777     Ni1783   1.906       .  S
O1777      C1798   1.260       .  A
O1778     Ni1801   1.893       .  S
O1778      C1787   1.262       .  A
O1779     Ni1783   1.915       .  S
O1779     Ni1801   1.908       .  S
O1779     Ni1795   1.925       .  S
O1779      H1802   0.967       .  S
C1780      O1797   1.283       .  A
C1780      O1789   1.283       .  A
C1780      C2148   1.453       .  S
O1781     Ni1800   1.959       .  S
O1781      C1787   1.277       .  A
O1782     Ni1800   1.898       .  S
O1782      C1784   1.266       .  A
Ni1783     O4090   1.921       .  S
Ni1783     O1788   1.894       .  S
C1784      O1794   1.281       .  A
C1784      C2151   1.447       .  S
O1785     Ni4105   1.922   1_455  S
O1785      C1791   1.274       .  A
O1786     Ni4087   1.921   1_455  S
O1786      C1791   1.274       .  A
C1787      C2170   1.445       .  S
O1788      C1790   1.262       .  A
O1789     Ni1800   1.939       .  S
C1790      O1796   1.269       .  A
C1790      C2150   1.432       .  S
C1791      C2146   1.436       .  S
H1792      O1793   0.966       .  S
O1793     Ni1801   1.911       .  S
O1793     Ni1795   1.906       .  S
O1793     Ni1800   1.894       .  S
O1794     Ni1795   1.955       .  S
Ni1795     O1799   1.931       .  S
Ni1795     O1797   1.940       .  S
O1796     Ni1801   1.936       .  S
C1798      O1799   1.275       .  A
C1798      C2154   1.434       .  S
Ni1801     O4089   1.921       .  S
O1803     Ni1809   1.958       .  S
O1803      C1824   1.277       .  A
O1804     Ni1827   1.931       .  S
O1804      C1813   1.274       .  A
O1805     Ni1809   1.891       .  S
O1805     Ni1827   1.901       .  S
O1805     Ni1821   1.909       .  S
O1805      H1828   0.966       .  S
C1806      O1823   1.274       .  A
C1806      O1815   1.272       .  A
C1806      C2141   1.436       .  S
O1807     Ni1826   1.904       .  S
O1807      C1813   1.260       .  A
O1808     Ni1826   1.898       .  S
O1808      C1810   1.264       .  A
Ni1809     O1812   1.936       .  S
Ni1809     O1814   1.904       .  S
C1810      O1820   1.268       .  A
C1810      C2137   1.433       .  S
O1811     Ni1827   1.943       .  S
O1811      C1817   1.284       .  A
O1812      C1817   1.283       .  A
C1813      C2153   1.435       .  S
O1814      C1816   1.267       .  A
O1815     Ni1826   1.917       .  S
C1816      O1822   1.278       .  A
C1816      C2135   1.446       .  S
C1817      C4443   1.450       .  S
H1818      O1819   0.967       .  S
O1819     Ni1827   1.926       .  S
O1819     Ni1821   1.905       .  S
O1819     Ni1826   1.910       .  S
O1820     Ni1821   1.932       .  S
Ni1821     O1825   1.891       .  S
Ni1821     O1823   1.923       .  S
O1822     Ni1827   1.948       .  S
C1824      O1825   1.262       .  A
C1824      C2143   1.445       .  S
O1829     Ni1835   1.904       .  S
O1829      C1850   1.264       .  A
O1830     Ni1853   1.892       .  S
O1830      C1839   1.263       .  A
O1831     Ni1835   1.916       .  S
O1831     Ni1853   1.911       .  S
O1831     Ni1847   1.931       .  S
O1831      H1854   0.967       .  S
C1832      O1849   1.281       .  A
C1832      O1841   1.283       .  A
C1832      C2131   1.452       .  S
O1833     Ni1852   1.960       .  S
O1833      C1839   1.278       .  A
O1834     Ni1852   1.901       .  S
O1834      C1836   1.267       .  A
Ni1835     O1838   1.923       .  S
Ni1835     O1840   1.899       .  S
C1836      O1846   1.281       .  A
C1836      C2147   1.449       .  S
O1837     Ni1853   1.916       .  S
O1837      C1843   1.268       .  A
O1838      C1843   1.268       .  A
C1839      C2190   1.446       .  S
O1840      C1842   1.266       .  A
O1841     Ni1852   1.941       .  S
C1842      O1848   1.277       .  A
C1843      C2133   1.435       .  S
H1844      O1845   0.965       .  S
O1845     Ni1853   1.902       .  S
O1845     Ni1847   1.899       .  S
O1845     Ni1852   1.896       .  S
O1846     Ni1847   1.957       .  S
Ni1847     O1851   1.921       .  S
Ni1847     O1849   1.938       .  S
O1848     Ni1853   1.957       .  S
C1850      O1851   1.275       .  A
C1850      C2129   1.429       .  S
O1855     Ni1861   1.961       .  S
O1855      C1876   1.278       .  A
O1856     Ni1879   1.920       .  S
O1856      C1865   1.275       .  A
O1857     Ni1861   1.896       .  S
O1857     Ni1879   1.900       .  S
O1857     Ni1873   1.903       .  S
O1857      H1880   0.966       .  S
C1858      O1875   1.268       .  A
C1858      O1867   1.268       .  A
C1858      C2126   1.434       .  S
O1859     Ni1878   1.905       .  S
O1859      C1865   1.264       .  A
O1860     Ni1878   1.900       .  S
O1860      C1862   1.266       .  A
Ni1861     O1864   1.941       .  S
Ni1861     O1866   1.900       .  S
C1862      O1872   1.275       .  A
C1862      C2142   1.437       .  S
O1863     Ni1879   1.937       .  S
O1863      C1869   1.281       .  A
O1864      C1869   1.283       .  A
C1865      C2130   1.430       .  S
O1867     Ni1878   1.921       .  S
C1868      C2140   1.451       .  S
C1869      C2123   1.452       .  S
H1870      O1871   0.967       .  S
O1871     Ni1879   1.929       .  S
O1871     Ni1873   1.911       .  S
O1871     Ni1878   1.916       .  S
O1872     Ni1873   1.953       .  S
Ni1873     O1877   1.890       .  S
Ni1873     O1875   1.917       .  S
O1874     Ni1879   1.958       .  S
C1876      O1877   1.262       .  A
C1876      C2127   1.445       .  S
O1881     Ni1887   1.908       .  S
O1881      C1902   1.261       .  A
O1882     Ni1905   1.899       .  S
O1882      C1891   1.264       .  A
O1883     Ni1887   1.912       .  S
O1883     Ni1905   1.909       .  S
O1883     Ni1899   1.920       .  S
O1883      H1906   0.966       .  S
C1884      O1901   1.282       .  A
C1884      O1893   1.284       .  A
C1884      C2152   1.451       .  S
O1885     Ni1904   1.964       .  S
O1885      C1891   1.278       .  A
O1886     Ni1904   1.896       .  S
O1886      C1888   1.265       .  A
Ni1887     O1892   1.897       .  S
C1888      O1898   1.283       .  A
C1888      C2132   1.447       .  S
O1889      C1895   1.273       .  A
O1890      C1895   1.274       .  A
C1891      C2156   1.453       .  S
O1892      C1894   1.263       .  A
O1893     Ni1904   1.941       .  S
C1894      O1900   1.272       .  A
C1894      C4438   1.440       .  S
C1895      C2149   1.431       .  S
H1896      O1897   0.966       .  S
O1897     Ni1905   1.909       .  S
O1897     Ni1899   1.911       .  S
O1897     Ni1904   1.893       .  S
O1898     Ni1899   1.960       .  S
Ni1899     O1903   1.942       .  S
Ni1899     O1901   1.937       .  S
O1900     Ni1905   1.946       .  S
C1902      O1903   1.277       .  A
C1902      C2121   1.444       .  S
O1907     Ni1913   1.959       .  S
O1907      C1928   1.277       .  A
O1908     Ni1931   1.941       .  S
O1908      C1917   1.277       .  A
O1909     Ni1913   1.892       .  S
O1909     Ni1931   1.909       .  S
O1909     Ni1925   1.907       .  S
O1909      H1932   0.966       .  S
C1910      O1927   1.274       .  A
C1910      O1919   1.272       .  A
C1910      C2138   1.430       .  S
O1911     Ni1930   1.907       .  S
O1911      C1917   1.260       .  A
O1912     Ni1930   1.898       .  S
O1912      C1914   1.264       .  A
Ni1913     O1916   1.934       .  S
Ni1913     O1918   1.900       .  S
C1914      O1924   1.269       .  A
C1914      C2125   1.436       .  S
O1915     Ni1931   1.933       .  S
O1915      C1921   1.281       .  A
O1916      C1921   1.282       .  A
C1917      C2122   1.444       .  S
O1918      C1920   1.267       .  A
O1919     Ni1930   1.914       .  S
C1920      O1926   1.281       .  A
C1920      C4428   1.447       .  S
H1922      O1923   0.966       .  S
O1923     Ni1931   1.918       .  S
O1923     Ni1925   1.908       .  S
O1923     Ni1930   1.910       .  S
O1924     Ni1925   1.936       .  S
Ni1925     O1929   1.895       .  S
Ni1925     O1927   1.919       .  S
O1926     Ni1931   1.956       .  S
C1928      O1929   1.263       .  A
C1928      C2119   1.447       .  S
O1933     Ni1939   1.962       .  S
O1933      C1954   1.277       .  A
O1934     Ni1957   1.931       .  S
O1934      C1943   1.278       .  A
O1935     Ni1939   1.898       .  S
O1935     Ni1957   1.902       .  S
O1935     Ni1951   1.897       .  S
O1935      H1958   0.966       .  S
C1936      O1953   1.265       .  A
C1936      O1945   1.265       .  A
C1936      C2109   1.433       .  S
O1937     Ni1956   1.894       .  S
O1937      C1943   1.262       .  A
O1938     Ni1956   1.900       .  S
O1938      C1940   1.267       .  A
Ni1939     O1942   1.941       .  S
Ni1939     O1944   1.897       .  S
C1940      O1950   1.279       .  A
C1940      C2114   1.440       .  S
O1941     Ni1957   1.934       .  S
O1941      C1947   1.281       .  A
O1942      C1947   1.284       .  A
C1943      C2118   1.432       .  S
O1944      C1946   1.266       .  A
O1945     Ni1956   1.921       .  S
C1946      O1952   1.282       .  A
C1946      C2116   1.449       .  S
C1947      C2111   1.450       .  S
H1948      O1949   0.967       .  S
O1949     Ni1957   1.937       .  S
O1949     Ni1951   1.911       .  S
O1949     Ni1956   1.919       .  S
O1950     Ni1951   1.961       .  S
Ni1951     O1955   1.889       .  S
Ni1951     O1953   1.914       .  S
O1952     Ni1957   1.959       .  S
C1954      O1955   1.260       .  A
C1954      C2144   1.445       .  S
O1959     Ni1965   1.897       .  S
O1959      C1980   1.263       .  A
O1960     Ni1983   1.890       .  S
O1960      C1969   1.261       .  A
O1961     Ni1965   1.916       .  S
O1961     Ni1983   1.909       .  S
O1961     Ni1977   1.933       .  S
O1961      H1984   0.967       .  S
C1962      O1979   1.282       .  A
C1962      O1971   1.284       .  A
C1962      C2101   1.450       .  S
O1963     Ni1982   1.960       .  S
O1963      C1969   1.277       .  A
O1964     Ni1982   1.898       .  S
O1964      C1966   1.266       .  A
Ni1965     O1968   1.924       .  S
Ni1965     O1970   1.900       .  S
C1966      O1976   1.282       .  A
C1966      C2106   1.450       .  S
O1967     Ni1983   1.911       .  S
O1967      C1973   1.265       .  A
O1968      C1973   1.267       .  A
C1969      C2251   1.446       .  S
O1970      C1972   1.266       .  A
O1971     Ni1982   1.939       .  S
C1972      O1978   1.278       .  A
C1972      C2107   1.438       .  S
C1973      C2103   1.432       .  S
H1974      O1975   0.966       .  S
O1975     Ni1983   1.896       .  S
O1975     Ni1977   1.902       .  S
O1975     Ni1982   1.895       .  S
O1976     Ni1977   1.961       .  S
Ni1977     O1981   1.931       .  S
Ni1977     O1979   1.937       .  S
O1978     Ni1983   1.962       .  S
C1980      O1981   1.279       .  A
C1980      C2117   1.433       .  S
O1985     Ni1991   1.958       .  S
O1985      C4310   1.276       .  A
O1986     Ni2009   1.936       .  S
O1986      C1995   1.277   1_455  A
O1987     Ni1991   1.892       .  S
O1987     Ni2009   1.906       .  S
O1987     Ni4307   1.905   1_455  S
O1987      H2010   0.966       .  S
C1988      O2005   1.273       .  A
C1988      O1997   1.273       .  A
C1988      C2095   1.431       .  S
O1989     Ni2008   1.908       .  S
O1989      C4299   1.262       .  A
O1990     Ni2008   1.897       .  S
O1990      C1992   1.263       .  A
Ni1991     O1994   1.934       .  S
Ni1991     O1996   1.897       .  S
C1992      O2002   1.270       .  A
C1992      C2110   1.435       .  S
O1993     Ni2009   1.938       .  S
O1993      C1999   1.282       .  A
O1994      C1999   1.282       .  A
C1995      O4293   1.263       .  A
C1995      C2100   1.441   1_655  S
O1996      C1998   1.266       .  A
O1997     Ni2008   1.920       .  S
C1998      O2004   1.281       .  A
C1998      C2112   1.446       .  S
C1999      C2097   1.446       .  S
H2000      O2001   0.967       .  S
O2001     Ni4313   1.920       .  S
O2001     Ni2003   1.906       .  S
O2001     Ni2008   1.911       .  S
O2002     Ni2003   1.940       .  S
Ni2003     O2007   1.895       .  S
Ni2003     O2005   1.915       .  S
Ni2003     O4291   1.909       .  S
O2004     Ni2009   1.956       .  S
C2006      O4289   1.277       .  A
C2006      O2007   1.263       .  A
C2006      C2120   1.447       .  S
Ni2009     O4305   1.919   1_455  S
O2011     Ni2017   1.910       .  S
O2011      C4336   1.262       .  A
O2012     Ni2035   1.896       .  S
O2012      C2021   1.263   1_455  A
O2013     Ni2017   1.912       .  S
O2013     Ni2035   1.908       .  S
O2013     Ni4333   1.920   1_455  S
O2013      H2036   0.967       .  S
C2014      O2031   1.282       .  A
C2014      O2023   1.283       .  A
C2014      C2091   1.450       .  S
O2015     Ni2034   1.959       .  S
O2015      C4325   1.277       .  A
O2016     Ni2034   1.896       .  S
O2016      C2018   1.266       .  A
Ni2017     O2020   1.920       .  S
Ni2017     O2022   1.897       .  S
C2018      O2028   1.281       .  A
C2018      C2102   1.445       .  S
O2019     Ni2035   1.919       .  S
O2019      C2025   1.274       .  A
O2020      C2025   1.273       .  A
C2021      O4319   1.277       .  A
C2021      C2227   1.448   1_655  S
O2022      C2024   1.264       .  A
O2023     Ni2034   1.939       .  S
C2024      O2030   1.269       .  A
C2024      C2104   1.433       .  S
C2025      C2093   1.434       .  S
H2026      O2027   0.966       .  S
O2027     Ni4339   1.908       .  S
O2027     Ni2029   1.906       .  S
O2027     Ni2034   1.893       .  S
O2028     Ni2029   1.956       .  S
Ni2029     O2033   1.933       .  S
Ni2029     O2031   1.937       .  S
Ni2029     O4317   1.920       .  S
O2030     Ni2035   1.937       .  S
C2032      O4315   1.261       .  A
C2032      O2033   1.276       .  A
C2032      C2099   1.438       .  S
Ni2035     O4331   1.911   1_455  S
O2037     Ni2043   1.958       .  S
O2038     Ni2061   1.924       .  S
O2038      C2047   1.271       .  A
O2039     Ni2043   1.891       .  S
O2039     Ni2061   1.901       .  S
O2039      H2062   0.966       .  S
C2040      O2057   1.275       .  A
C2040      O2049   1.273       .  A
C2040      C2113   1.439       .  S
O2041     Ni2060   1.904       .  S
O2042     Ni2060   1.894       .  S
O2042      C2044   1.263       .  A
Ni2043     O2046   1.942       .  S
Ni2043     O2048   1.899       .  S
C2044      O2054   1.270       .  A
C2044      C2096   1.432       .  S
O2045     Ni2061   1.939       .  S
O2045      C2051   1.282       .  A
O2046      C2051   1.284       .  A
C2047      C2090   1.429       .  S
O2048      C2050   1.266       .  A
O2049     Ni2060   1.921       .  S
C2050      O2056   1.278       .  A
C2050      C2098   1.443       .  S
C2051      C2115   1.453       .  S
H2052      O2053   0.967       .  S
O2053     Ni2055   1.903       .  S
O2053     Ni2060   1.909       .  S
O2054     Ni2055   1.935       .  S
Ni2055     O2059   1.893       .  S
Ni2055     O2057   1.925       .  S
O2056     Ni2061   1.948       .  S
C2058      O2059   1.263       .  A
C2058      C2128   1.445       .  S
O2063     Ni2069   1.907       .  S
O2064     Ni2087   1.892       .  S
O2064      C2073   1.263       .  A
O2065     Ni2069   1.910       .  S
O2065     Ni2087   1.904       .  S
O2065      H2088   0.966       .  S
C2066      O2083   1.282       .  A
C2066      O2075   1.284       .  A
C2066      C2105   1.454       .  S
O2067     Ni2086   1.962       .  S
O2068     Ni2086   1.898       .  S
O2068      C2070   1.266       .  A
Ni2069     O2072   1.921       .  S
Ni2069     O2074   1.896       .  S
C2070      O2080   1.281       .  A
C2070      C2092   1.446       .  S
O2071     Ni2087   1.922       .  S
O2071      C2077   1.274       .  A
O2072      C2077   1.273       .  A
C2073      C2236   1.446       .  S
O2074      C2076   1.263       .  A
O2075     Ni2086   1.943       .  S
C2076      O2082   1.271       .  A
C2076      C2094   1.436       .  S
C2077      C2108   1.438       .  S
H2078      O2079   0.966       .  S
O2079     Ni2081   1.905       .  S
O2079     Ni2086   1.893       .  S
O2080     Ni2081   1.954       .  S
Ni2081     O2085   1.929       .  S
Ni2081     O2083   1.939       .  S
O2082     Ni2087   1.939       .  S
C2084      O2085   1.274       .  A
C2084      C2089   1.433       .  S
C2091      C2092   1.214       .  T
C2093      C2094   1.206       .  T
C2095      C2096   1.204       .  T
C2097      C2098   1.212       .  T
C2099      C4404   1.209   1_556  T
C2100      C4403   1.211   1_454  T
C2101      C2102   1.214       .  T
C2103      C2104   1.204       .  T
C2105      C2106   1.217       .  T
C2107      C2108   1.208       .  T
C2109      C2110   1.206       .  T
C2111      C2112   1.214       .  T
C2113      C2114   1.209       .  T
C2115      C2116   1.216       .  T
C2117      C2118   1.207   1_556  T
C2119      C2120   1.213       .  T
C2121      C2122   1.213       .  T
C2123      C2124   1.215       .  T
C2124      C4224   1.447       .  S
C2125      C2126   1.206       .  T
C2127      C2128   1.212       .  T
C2129      C2130   1.204       .  T
C2131      C2132   1.216       .  T
C2133      C2134   1.206       .  T
C2134      C4198   1.436   1_455  S
C2135      C2136   1.214       .  T
C2137      C2138   1.204       .  T
C2139      C4121   1.455   1_455  S
C2139      C2140   1.217       .  T
C2141      C2142   1.207       .  T
C2143      C2144   1.212       .  T
C2145      C2146   1.207       .  T
C2147      C2148   1.216       .  T
C2149      C2150   1.204       .  T
C2151      C2152   1.215       .  T
C2153      C2154   1.207       .  T
C2157      C2158   1.210       .  T
C2159      C2160   1.217       .  T
C2160      C4017   1.454       .  S
C2161      C2162   1.205       .  T
C2163      C2164   1.218       .  T
C2165      C2166   1.206       .  T
C2167      C2168   1.204       .  T
C2169      C4474   1.213   1_455  T
C2170      C4473   1.212       .  T
C2171      C2172   1.214       .  T
C2172      C3964   1.446       .  S
C2173      C2174   1.206       .  T
C2175      C2176   1.218       .  T
C2177      C2178   1.206       .  T
C2179      C3938   1.432       .  S
C2179      C2180   1.204       .  T
C2181      C2182   1.214       .  T
C2183      C2184   1.207       .  T
C2185      C2186   1.216       .  T
C2187      C2188   1.210       .  T
C2189      C2190   1.213       .  T
C2191      C2192   1.214       .  T
C2193      C4498   1.204       .  T
C2194      C4497   1.208       .  T
C2195      C2196   1.203       .  T
C2197      C2198   1.216       .  T
C2199      C2200   1.212       .  T
C2203      C2204   1.213       .  T
C2205      C2206   1.210       .  T
C2207      C2208   1.215       .  T
C2209      C2210   1.207       .  T
C2211      C2212   1.214       .  T
C2213      C2214   1.206       .  T
C2215      C2216   1.213       .  T
C2217      C2218   1.219       .  T
C2219      C2220   1.207       .  T
C2221      C2222   1.210       .  T
C2223      C2224   1.205       .  T
C2225      C2226   1.209       .  T
C2227      C2228   1.214       .  T
C2229      C2230   1.211       .  T
C2231      C2232   1.213       .  T
C2233      C2234   1.207       .  T
C2234      C3750   1.437       .  S
C2235      C2236   1.213       .  T
C2237      C2238   1.208       .  T
C2239      C3724   1.452       .  S
C2239      C2240   1.218       .  T
C2241      C2242   1.205       .  T
C2243      C2244   1.207       .  T
C2245      C2246   1.215       .  T
C2247      C2248   1.215       .  T
C2249      C2250   1.204       .  T
C2251      C2252   1.212       .  T
C2253      C2254   1.209       .  T
C2255      C2256   1.216       .  T
C2256      C3616   1.452       .  S
C2257      C2258   1.207       .  T
C2259      C2260   1.213       .  T
C2261      C2262   1.203       .  T
C2265      C2266   1.210       .  T
C2267      C2268   1.212       .  T
C2269      C2270   1.214       .  T
C2271      C3542   1.437   1_455  S
C2271      C2272   1.207       .  T
C2273      C2274   1.215       .  T
C2275      C2276   1.215       .  T
C2277      C2278   1.207       .  T
C2279      C2280   1.206       .  T
C2281      C2282   1.213       .  T
C2283      C2284   1.207       .  T
C2285      C2286   1.216       .  T
C2287      C2288   1.206       .  T
C2289      C2290   1.212       .  T
C2291      C4596   1.212   1_455  T
C2292      C4595   1.213       .  T
C2293      C2294   1.208       .  T
C2295      C3460   1.449   1_455  S
C2295      C2296   1.214       .  T
C2297      C2298   1.204       .  T
C2299      C2300   1.216       .  T
C2301      C2302   1.209       .  T
C2303      C2304   1.210       .  T
O2305     Ni2311   1.904       .  S
O2305      C2326   1.263       .  A
O2306     Ni2329   1.893       .  S
O2306      C2315   1.263       .  A
O2307     Ni2311   1.914       .  S
O2307     Ni2329   1.911       .  S
O2307     Ni2323   1.926       .  S
O2307      H2330   0.967       .  S
C2308      O2325   1.282       .  A
C2308      O2317   1.282       .  A
O2309     Ni2328   1.958       .  S
O2309      C2315   1.276       .  A
O2310     Ni2328   1.898       .  S
O2310      C3464   1.265   1_545  A
Ni2311     O2314   1.921       .  S
Ni2311     O2316   1.898       .  S
C2312      O3462   1.266       .  A
C2312      O3474   1.280       .  A
C2312      C3452   1.445       .  S
O2313     Ni2329   1.910       .  S
O2313      C2319   1.266       .  A
O2314      C2319   1.269       .  A
C2315      C3456   1.447       .  S
O2316      C2318   1.264       .  A
O2317     Ni2328   1.936       .  S
C2318      O2324   1.278       .  A
C2318      C3450   1.444       .  S
C2319      C3445   1.431       .  S
H2320      O2321   0.966       .  S
O2321     Ni2329   1.901       .  S
O2321     Ni2323   1.904       .  S
O2321     Ni2328   1.896       .  S
O2322     Ni2323   1.962       .  S
O2322      C3464   1.283   1_545  A
Ni2323     O2327   1.927       .  S
Ni2323     O2325   1.939       .  S
O2324     Ni2329   1.963       .  S
C2326      O2327   1.277       .  A
C2326      C3453   1.432       .  S
O2331     Ni2337   1.956       .  S
O2331      C2352   1.277       .  A
O2332     Ni2355   1.932       .  S
O2332      C2341   1.275       .  A
O2333     Ni2337   1.891       .  S
O2333     Ni2355   1.904       .  S
O2333     Ni2349   1.908       .  S
O2333      H2356   0.966       .  S
C2334      O2351   1.272       .  A
C2334      O2343   1.273       .  A
C2334      C3440   1.431       .  S
O2335     Ni2354   1.903       .  S
O2335      C2341   1.260       .  A
O2336     Ni2354   1.899       .  S
O2336      C2338   1.264       .  A
Ni2337     O2340   1.935       .  S
Ni2337     O2342   1.898       .  S
C2338      O2348   1.270       .  A
C2338      C4588   1.439   1_545  S
O2339     Ni2355   1.938       .  S
O2339      C2345   1.282       .  A
O2340      C2345   1.282       .  A
C2341      C3454   1.434       .  S
O2342      C2344   1.266       .  A
C2344      O2350   1.280       .  A
C2344      C3437   1.445       .  S
C2345      C3442   1.447       .  S
H2346      O2347   0.967       .  S
O2347     Ni2355   1.921       .  S
O2347     Ni2349   1.904       .  S
O2347     Ni2354   1.909       .  S
O2348     Ni2349   1.940       .  S
Ni2349     O2353   1.893       .  S
O2350     Ni2355   1.954       .  S
C2352      O2353   1.263       .  A
C2352      C3444   1.445       .  S
O2357     Ni2363   1.910       .  S
O2357      C2378   1.262       .  A
O2358     Ni2381   1.892       .  S
O2358      C2367   1.264       .  A
O2359     Ni2363   1.913       .  S
O2359     Ni2381   1.908       .  S
O2359     Ni2375   1.928       .  S
O2359      H2382   0.967       .  S
C2360      O2377   1.283       .  A
C2360      O2369   1.283       .  A
C2360      C3451   1.448       .  S
O2361     Ni2380   1.959       .  S
O2361      C2367   1.278       .  A
O2362     Ni2380   1.901       .  S
Ni2363     O2366   1.921       .  S
Ni2363     O2368   1.896       .  S
C2364      C3427   1.445       .  S
O2365     Ni2381   1.929       .  S
O2365      C2371   1.275       .  A
O2366      C2371   1.273       .  A
C2367      C3434   1.445       .  S
O2368      C2370   1.264       .  A
O2369     Ni2380   1.938       .  S
C2370      O2376   1.272       .  A
C2370      C3430   1.438       .  S
C2371      C3449   1.444       .  S
H2372      O2373   0.966       .  S
O2373     Ni2381   1.910       .  S
O2373     Ni2375   1.901       .  S
O2373     Ni2380   1.893       .  S
O2374     Ni2375   1.954       .  S
Ni2375     O2379   1.929       .  S
Ni2375     O2377   1.939       .  S
O2376     Ni2381   1.942       .  S
C2378      O2379   1.274       .  A
C2378      C3431   1.436       .  S
O2383     Ni2389   1.958       .  S
O2383      C2404   1.278       .  A
O2384     Ni2407   1.930       .  S
O2384      C2393   1.274       .  A
O2385     Ni2389   1.891       .  S
O2385     Ni2407   1.903       .  S
O2385     Ni2401   1.911       .  S
O2385      H2408   0.966       .  S
C2386      O2403   1.275       .  A
C2386      O2395   1.273       .  A
C2386      C3435   1.439       .  S
O2387     Ni2406   1.909       .  S
O2387      C2393   1.261       .  A
O2388     Ni2406   1.898       .  S
O2388      C2390   1.264       .  A
Ni2389     O2392   1.939       .  S
Ni2389     O2394   1.900       .  S
C2390      O2400   1.270       .  A
O2391     Ni2407   1.936       .  S
O2391      C2397   1.281       .  A
O2392      C2397   1.283       .  A
C2393      C3432   1.436       .  S
O2394      C2396   1.266       .  A
O2395     Ni2406   1.920       .  S
C2396      O2402   1.281       .  A
C2396      C3422   1.448       .  S
C2397      C3438   1.449       .  S
H2398      O2399   0.967       .  S
O2399     Ni2407   1.925       .  S
O2399     Ni2401   1.908       .  S
O2399     Ni2406   1.914       .  S
O2400     Ni2401   1.937       .  S
Ni2401     O2405   1.897       .  S
Ni2401     O2403   1.924       .  S
O2402     Ni2407   1.955       .  S
C2404      O2405   1.265       .  A
C2404      C3426   1.447       .  S
O2409     Ni2415   1.909       .  S
O2409      C2430   1.262       .  A
O2410     Ni2433   1.893       .  S
O2410      C2419   1.262       .  A
O2411     Ni2415   1.915       .  S
O2411     Ni2433   1.909       .  S
O2411     Ni2427   1.925       .  S
O2411      H2434   0.967       .  S
C2412      O2429   1.284       .  A
C2412      O2421   1.283       .  A
C2412      C4580   1.452   1_545  S
O2413     Ni2432   1.961       .  S
O2413      C2419   1.277       .  A
O2414     Ni2432   1.897       .  S
O2414      C2416   1.266       .  A
Ni2415     O2418   1.923       .  S
Ni2415     O2420   1.896       .  S
C2416      O2426   1.282       .  A
C2416      C3448   1.448       .  S
O2417     Ni2433   1.920       .  S
O2417      C2423   1.272       .  A
O2418      C2423   1.272       .  A
C2419      C3420   1.448       .  S
O2420      C2422   1.263       .  A
O2421     Ni2432   1.938       .  S
C2422      O2428   1.269       .  A
C2422      C3446   1.432       .  S
C2423      C3429   1.438       .  S
H2424      O2425   0.966       .  S
O2425     Ni2433   1.910       .  S
O2425     Ni2427   1.907       .  S
O2425     Ni2432   1.894       .  S
O2426     Ni2427   1.958       .  S
Ni2427     O2431   1.932       .  S
Ni2427     O2429   1.943       .  S
O2428     Ni2433   1.937       .  S
C2430      O2431   1.276       .  A
C2430      C3417   1.436       .  S
O2435     Ni2441   1.963       .  S
O2435      C2456   1.279       .  A
O2436     Ni2459   1.933       .  S
O2436      C2445   1.274       .  A
O2437     Ni2441   1.889       .  S
O2437     Ni2459   1.901       .  S
O2437     Ni2453   1.909       .  S
O2437      H2460   0.966       .  S
C2438      O2455   1.275       .  A
C2438      O2447   1.274       .  A
C2438      C3424   1.437       .  S
O2439     Ni2458   1.904       .  S
O2439      C2445   1.259       .  A
O2440     Ni2458   1.894       .  S
O2440      C2442   1.263       .  A
Ni2441     O2444   1.942       .  S
Ni2441     O2446   1.900       .  S
C2442      O2452   1.270       .  A
C2442      C3439   1.433       .  S
O2443     Ni2459   1.941       .  S
O2443      C2449   1.284       .  A
O2444      C2449   1.285       .  A
C2445      C3418   1.436       .  S
O2446      C2448   1.267       .  A
O2447     Ni3610   1.921       .  S
C2448      O2454   1.278       .  A
C2448      C3441   1.444       .  S
C2449      C3421   1.452       .  S
H2450      O2451   0.967       .  S
O2451     Ni2459   1.927       .  S
O2451     Ni2453   1.905       .  S
O2451     Ni2458   1.909       .  S
O2452     Ni2453   1.935       .  S
Ni2453     O2457   1.894       .  S
Ni2453     O3607   1.926   1_545  S
O2454     Ni2459   1.948       .  S
O2455     Ni3605   1.923       .  S
C2456      O2457   1.264       .  A
C2456      C3415   1.449       .  S
Ni2458     O3599   1.916   1_545  S
O2461     Ni2467   1.908       .  S
O2461      C2482   1.261       .  A
O2462     Ni2485   1.890       .  S
O2462      C2471   1.261       .  A
O2463     Ni2467   1.912       .  S
O2463     Ni2485   1.905       .  S
O2463     Ni2479   1.922       .  S
O2463      H2486   0.967       .  S
C2464      O2481   1.282       .  A
C2464      O2473   1.283       .  A
O2465     Ni2484   1.959       .  S
O2465      C2471   1.277       .  A
O2466     Ni2484   1.899       .  S
O2466      C2468   1.266       .  A
Ni2467     O2470   1.922       .  S
Ni2467     O2472   1.897       .  S
C2468      O2478   1.280       .  A
C2468      C3412   1.446       .  S
O2469     Ni2485   1.918       .  S
O2469      C2475   1.273       .  A
O2470      C2475   1.273       .  A
C2471      C3404   1.443       .  S
O2472      C2474   1.263       .  A
O2473     Ni2484   1.939       .  S
C2474      O2480   1.270       .  A
C2474      C3413   1.436       .  S
C2475      C3410   1.435       .  S
H2476      O2477   0.966       .  S
O2477     Ni2485   1.910       .  S
O2477     Ni2479   1.907       .  S
O2477     Ni2484   1.895       .  S
O2478     Ni2479   1.953       .  S
Ni2479     O2483   1.933       .  S
Ni2479     O2481   1.938       .  S
O2480     Ni2485   1.941       .  S
C2482      O2483   1.275       .  A
C2482      C3406   1.438       .  S
O2487     Ni2493   1.963       .  S
O2487      C2508   1.278       .  A
O2488     Ni2511   1.936       .  S
O2488      C2497   1.275       .  A
O2489     Ni2493   1.894       .  S
O2489     Ni2511   1.909       .  S
O2489     Ni2505   1.909       .  S
O2489      H2512   0.966       .  S
C2490      O2507   1.271       .  A
C2490      O2499   1.273       .  A
C2490      C3402   1.429       .  S
O2491     Ni2510   1.907       .  S
O2491      C2497   1.261       .  A
O2492     Ni2510   1.900       .  S
O2492      C2494   1.265       .  A
Ni2493     O2496   1.940       .  S
Ni2493     O2498   1.896       .  S
C2494      O2504   1.270       .  A
C2494      C3395   1.438       .  S
O2495     Ni2511   1.941       .  S
O2495      C2501   1.283       .  A
O2496      C2501   1.283       .  A
C2497      C3405   1.439       .  S
O2498      C2500   1.266       .  A
C2500      O2506   1.281       .  A
C2500      C3398   1.445       .  S
C2501      C3399   1.452       .  S
H2502      O2503   0.967       .  S
O2503     Ni2511   1.924       .  S
O2503     Ni2505   1.907       .  S
O2503     Ni2510   1.913       .  S
O2504     Ni2505   1.937       .  S
Ni2505     O2509   1.897       .  S
O2506     Ni2511   1.955       .  S
C2508      O2509   1.263       .  A
C2508      C3443   1.452       .  S
O2513     Ni2519   1.895       .  S
O2513      C2534   1.262       .  A
O2514     Ni2537   1.888       .  S
O2514      C2523   1.260       .  A
O2515     Ni2519   1.916       .  S
O2515     Ni2537   1.911       .  S
O2515     Ni2531   1.936       .  S
O2515      H2538   0.967       .  S
C2516      O2533   1.283       .  A
C2516      O2525   1.282       .  A
C2516      C3392   1.453       .  S
O2517     Ni2536   1.955       .  S
O2517      C2523   1.275       .  A
O2518     Ni2536   1.899       .  S
O2518      C2520   1.267       .  A
Ni2519     O2522   1.915       .  S
Ni2519     O2524   1.899       .  S
C2520      O2530   1.279       .  A
C2520      C4559   1.446       .  S
O2521     Ni2537   1.914       .  S
O2521      C2527   1.265       .  A
O2522      C2527   1.265       .  A
C2523      C3387   1.440       .  S
O2524      C2526   1.267       .  A
O2525     Ni2536   1.936       .  S
C2526      O2532   1.277       .  A
C2526      C3409   1.436       .  S
C2527      C3390   1.429       .  S
H2528      O2529   0.966       .  S
O2529     Ni2537   1.900       .  S
O2529     Ni2531   1.901       .  S
O2529     Ni2536   1.899       .  S
O2530     Ni2531   1.952       .  S
Ni2531     O2535   1.928       .  S
Ni2531     O2533   1.942       .  S
O2532     Ni2537   1.953       .  S
C2534      O2535   1.277       .  A
C2534      C3393   1.431       .  S
O2539     Ni2545   1.961       .  S
O2539      C2560   1.277       .  A
O2540     Ni2563   1.928       .  S
O2540      C2549   1.277       .  A
O2541     Ni2545   1.899       .  S
O2541     Ni2563   1.903       .  S
O2541     Ni2557   1.900       .  S
O2541      H2564   0.966       .  S
C2542      O2559   1.265       .  A
C2542      O2551   1.266       .  A
C2542      C3385   1.433       .  S
O2543     Ni2562   1.896       .  S
O2543      C2549   1.262       .  A
O2544     Ni2562   1.899       .  S
O2544      C2546   1.267       .  A
Ni2545     O2548   1.939       .  S
Ni2545     O2550   1.900       .  S
C2546      O2556   1.279       .  A
C2546      C4553   1.440       .  S
O2547     Ni2563   1.940       .  S
O2547      C2553   1.282       .  A
O2548      C2553   1.283       .  A
C2549      C3394   1.431       .  S
O2550      C2552   1.267       .  A
O2551     Ni2562   1.920       .  S
C2552      O2558   1.280       .  A
C2552      C3400   1.448       .  S
C2553      C3383   1.453       .  S
H2554      O2555   0.967       .  S
O2555     Ni2563   1.937       .  S
O2555     Ni2557   1.911       .  S
O2555     Ni2562   1.918       .  S
O2556     Ni2557   1.962       .  S
Ni2557     O2561   1.892       .  S
Ni2557     O2559   1.914       .  S
O2558     Ni2563   1.955       .  S
C2560      O2561   1.262       .  A
C2560      C3425   1.447       .  S
O2565     Ni2571   1.906       .  S
O2565      C2586   1.260       .  A
O2566     Ni2589   1.889       .  S
O2566      C2575   1.261       .  A
O2567     Ni2571   1.915       .  S
O2567     Ni2589   1.908       .  S
O2567     Ni2583   1.923       .  S
O2567      H2590   0.966       .  S
C2568      O2585   1.281       .  A
C2568      O2577   1.283       .  A
C2568      C4563   1.447       .  S
O2569     Ni2588   1.956       .  S
O2569      C2575   1.276       .  A
O2570     Ni2588   1.898       .  S
O2570      C2572   1.266       .  A
Ni2571     O2574   1.914       .  S
Ni2571     O2576   1.900       .  S
C2572      O2582   1.282       .  A
O2573     Ni2589   1.924       .  S
O2573      C2579   1.274       .  A
O2574      C2579   1.271       .  A
C2575      C3380   1.441       .  S
O2576      C2578   1.265       .  A
O2577     Ni2588   1.937       .  S
C2578      O2584   1.266       .  A
C2578      C3389   1.432       .  S
C2579      C3414   1.435       .  S
H2580      O2581   0.966       .  S
O2581     Ni2589   1.909       .  S
O2581     Ni2583   1.905       .  S
O2581     Ni2588   1.893       .  S
O2582     Ni2583   1.959       .  S
Ni2583     O2587   1.934       .  S
Ni2583     O2585   1.934       .  S
O2584     Ni2589   1.928       .  S
C2586      O2587   1.275       .  A
C2586      C3381   1.439       .  S
O2591     Ni2597   1.963       .  S
O2591      C2612   1.278       .  A
O2592     Ni2615   1.933       .  S
O2592      C2601   1.278       .  A
O2593     Ni2597   1.899       .  S
O2593     Ni2615   1.907       .  S
O2593     Ni2609   1.902       .  S
O2593      H2616   0.965       .  S
C2594      O2611   1.269       .  A
C2594      O2603   1.268       .  A
C2594      C3396   1.436       .  S
O2595     Ni2614   1.900       .  S
O2595      C2601   1.263       .  A
O2596     Ni2614   1.901       .  S
O2596      C2598   1.267       .  A
Ni2597     O2600   1.940       .  S
Ni2597     O2602   1.900       .  S
C2598      O2608   1.278       .  A
O2599     Ni2615   1.933       .  S
O2599      C2605   1.280       .  A
O2600      C2605   1.282       .  A
C2601      C3382   1.437       .  S
O2602      C2604   1.267       .  A
O2603     Ni3766   1.921   1_545  S
C2604      O2610   1.282       .  A
C2604      C3384   1.450       .  S
C2605      C3397   1.450       .  S
H2606      O2607   0.966       .  S
O2607     Ni2615   1.933       .  S
O2607     Ni2609   1.913       .  S
O2607     Ni2614   1.918       .  S
O2608     Ni2609   1.958       .  S
Ni2609     O2613   1.896       .  S
Ni2609     O3763   1.914       .  S
O2610     Ni2615   1.959       .  S
O2611     Ni3761   1.918   1_545  S
C2612      O2613   1.262       .  A
C2612      C3416   1.451       .  S
Ni2614     O3755   1.923       .  S
O2617     Ni2623   1.903       .  S
O2617      C2638   1.263       .  A
O2618     Ni2641   1.894       .  S
O2618      C2627   1.262       .  A
O2619     Ni2623   1.917       .  S
O2619     Ni2641   1.912       .  S
O2619     Ni2635   1.930       .  S
O2619      H2642   0.966       .  S
C2620      O2637   1.282       .  A
C2620      O2629   1.283       .  A
C2620      C3374   1.453       .  S
O2621     Ni2640   1.960       .  S
O2621      C2627   1.277       .  A
O2622     Ni2640   1.898       .  S
O2622      C2624   1.266       .  A
Ni2623     O2626   1.921       .  S
Ni2623     O2628   1.900       .  S
C2624      O2634   1.282       .  A
C2624      C3369   1.449       .  S
O2625     Ni2641   1.914       .  S
O2625      C2631   1.267       .  A
O2626      C2631   1.268       .  A
C2627      C3419   1.448       .  S
O2628      C2630   1.266       .  A
O2629     Ni2640   1.939       .  S
C2630      O2636   1.276       .  A
C2630      C3371   1.438       .  S
C2631      C3376   1.433       .  S
H2632      O2633   0.966       .  S
O2633     Ni2641   1.904       .  S
O2633     Ni2635   1.904       .  S
O2633     Ni2640   1.896       .  S
O2634     Ni2635   1.959       .  S
Ni2635     O2639   1.929       .  S
Ni2635     O2637   1.940       .  S
O2636     Ni2641   1.954       .  S
C2638      O2639   1.277       .  A
C2638      C3377   1.433       .  S
O2643     Ni2649   1.955       .  S
O2643      C2664   1.277       .  A
O2644     Ni2667   1.933       .  S
O2644      C2653   1.274       .  A
O2645     Ni2649   1.888       .  S
O2645     Ni2667   1.900       .  S
O2645     Ni2661   1.907       .  S
O2645      H2668   0.966       .  S
C2646      O2663   1.275       .  A
C2646      O2655   1.272       .  A
C2646      C3365   1.432       .  S
O2647     Ni2666   1.901       .  S
O2647      C2653   1.259       .  A
O2648     Ni2666   1.896       .  S
O2648      C2650   1.263       .  A
Ni2649     O2652   1.937       .  S
Ni2649     O2654   1.898       .  S
C2650      O2660   1.269       .  A
C2650      C3362   1.434       .  S
O2651     Ni2667   1.938       .  S
O2651      C2657   1.283       .  A
O2652      C2657   1.284       .  A
C2653      C3378   1.435       .  S
O2654      C2656   1.266       .  A
O2655     Ni2666   1.912       .  S
C2656      O2662   1.280       .  A
C2656      C3359   1.445       .  S
C2657      C3363   1.449       .  S
H2658      O2659   0.966       .  S
O2659     Ni2667   1.925       .  S
O2659     Ni2661   1.902       .  S
O2659     Ni2666   1.907       .  S
O2660     Ni2661   1.935       .  S
Ni2661     O2665   1.891       .  S
Ni2661     O2663   1.925       .  S
O2662     Ni2667   1.953       .  S
C2664      O2665   1.263       .  A
C2664      C3367   1.441       .  S
O2669     Ni2675   1.908       .  S
O2669      C3842   1.262       .  A
O2670     Ni2693   1.890       .  S
O2670      C2679   1.261   1_545  A
O2671     Ni2675   1.916       .  S
O2671     Ni2693   1.910       .  S
O2671     Ni3839   1.925   1_545  S
O2671      H2694   0.967       .  S
C2672      O2689   1.281       .  A
C2672      O2681   1.284       .  A
C2672      C3355   1.448       .  S
O2673     Ni2692   1.956       .  S
O2673      C3831   1.277       .  A
O2674     Ni2692   1.899       .  S
O2674      C2676   1.266       .  A
Ni2675     O2678   1.918       .  S
Ni2675     O2680   1.898       .  S
C2676      O2686   1.282       .  A
C2676      C3373   1.449       .  S
O2677     Ni2693   1.918       .  S
O2677      C2683   1.271       .  A
O2678      C2683   1.271       .  A
C2679      O3825   1.278       .  A
C2679      C3455   1.447   1_565  S
O2680      C2682   1.264       .  A
O2681     Ni2692   1.940       .  S
C2682      O2688   1.270       .  A
C2682      C3375   1.435       .  S
C2683      C3357   1.434       .  S
H2684      O2685   0.966       .  S
O2685     Ni3845   1.913       .  S
O2685     Ni2687   1.904       .  S
O2685     Ni2692   1.892       .  S
O2686     Ni2687   1.958       .  S
Ni2687     O2691   1.933       .  S
Ni2687     O2689   1.935       .  S
Ni2687     O3823   1.927       .  S
O2688     Ni2693   1.938       .  S
C2690      O3821   1.260       .  A
C2690      O2691   1.274       .  A
C2690      C3353   1.439       .  S
Ni2693     O3837   1.908   1_545  S
O2695     Ni2701   1.959       .  S
O2695      C3868   1.277   1_545  A
O2696     Ni2719   1.931       .  S
O2696      C2705   1.278   1_545  A
O2697     Ni2701   1.895       .  S
O2697     Ni2719   1.900       .  S
O2697     Ni3865   1.899   1_545  S
O2697      H2720   0.966   1_545  S
C2698      O2715   1.273       .  A
C2698      O2707   1.273       .  A
C2698      C3347   1.434       .  S
O2699     Ni2718   1.908       .  S
O2699      C3857   1.261       .  A
O2700     Ni2718   1.898       .  S
O2700      C2702   1.264       .  A
Ni2701     O2704   1.937       .  S
Ni2701     O2706   1.898       .  S
C2702      O2712   1.269       .  A
C2702      C3366   1.435       .  S
O2703     Ni2719   1.942       .  S
O2703      C2709   1.283       .  A
O2704      C2709   1.283       .  A
C2705      O3851   1.264       .  A
C2705      C3354   1.436       .  S
O2706      C2708   1.266       .  A
O2707     Ni2718   1.919       .  S
C2708      O2714   1.281       .  A
C2708      C3364   1.445       .  S
C2709      C3350   1.452       .  S
H2710      O2711   0.967       .  S
O2711     Ni3871   1.922       .  S
O2711     Ni2713   1.906       .  S
O2711     Ni2718   1.912       .  S
O2712     Ni2713   1.935       .  S
Ni2713     O2717   1.894       .  S
Ni2713     O2715   1.919       .  S
Ni2713     O3849   1.909       .  S
O2714     Ni2719   1.954       .  S
C2716      O3847   1.277       .  A
C2716      O2717   1.263       .  A
C2716      C3352   1.447       .  S
Ni2719     O3863   1.938   1_545  S
O2721     Ni2727   1.908       .  S
O2722     Ni2745   1.895       .  S
O2722      C2731   1.264       .  A
O2723     Ni2727   1.911       .  S
O2723     Ni2745   1.908       .  S
O2723      H2746   0.967       .  S
C2724      O2741   1.282       .  A
C2724      O2733   1.284       .  A
C2724      C3370   1.453       .  S
O2725     Ni2744   1.961       .  S
O2726     Ni2744   1.896       .  S
O2726      C2728   1.266       .  A
Ni2727     O2730   1.918       .  S
Ni2727     O2732   1.895       .  S
C2728      O2738   1.280       .  A
C2728      C3356   1.443       .  S
O2729     Ni2745   1.924       .  S
O2729      C2735   1.275       .  A
O2730      C2735   1.272       .  A
C2731      C3433   1.445       .  S
O2732      C2734   1.263       .  A
O2733     Ni2744   1.942       .  S
C2734      O2740   1.270       .  A
C2734      C3358   1.435       .  S
C2735      C3372   1.437       .  S
H2736      O2737   0.966       .  S
O2737     Ni2739   1.903       .  S
O2737     Ni2744   1.893       .  S
O2738     Ni2739   1.951       .  S
Ni2739     O2743   1.928       .  S
Ni2739     O2741   1.939       .  S
O2740     Ni2745   1.939       .  S
C2742      O2743   1.274       .  A
C2742      C3345   1.431       .  S
O2747     Ni2753   1.954       .  S
O2748     Ni2771   1.933       .  S
O2748      C2757   1.278   1_655  A
O2749     Ni2753   1.896       .  S
O2749     Ni2771   1.903       .  S
O2749      H2772   0.966       .  S
C2750      O2767   1.269       .  A
C2750      O2759   1.271       .  A
C2750      C3361   1.433       .  S
O2751     Ni2770   1.905       .  S
O2752     Ni2770   1.895       .  S
O2752      C2754   1.263       .  A
Ni2753     O2756   1.934       .  S
Ni2753     O2758   1.900       .  S
C2754      O2764   1.272       .  A
C2754      C3348   1.435       .  S
O2755     Ni2771   1.940       .  S
O2755      C2761   1.282       .  A
O2756      C2761   1.282       .  A
C2757      C3346   1.438   1_455  S
O2758      C2760   1.267       .  A
O2759     Ni2770   1.922       .  S
C2760      O2766   1.282       .  A
C2760      C3349   1.450       .  S
C2761      C3360   1.449       .  S
H2762      O2763   0.967       .  S
O2763     Ni2765   1.909       .  S
O2763     Ni2770   1.913       .  S
O2764     Ni2765   1.945       .  S
Ni2765     O2769   1.894       .  S
Ni2765     O2767   1.912       .  S
O2766     Ni2771   1.959       .  S
C2768      O2769   1.262       .  A
C2768      C3343   1.448       .  S
O2773     Ni2779   1.907       .  S
O2773      C2794   1.260       .  A
O2774     Ni2797   1.893       .  S
O2774      C2783   1.262       .  A
O2775     Ni2779   1.913       .  S
O2775     Ni2797   1.909       .  S
O2775     Ni2791   1.924       .  S
O2775      H2798   0.966       .  S
C2776      O2793   1.283       .  A
C2776      O2785   1.284       .  A
C2776      C3337   1.453       .  S
O2777     Ni2796   1.960       .  S
O2777      C2783   1.277       .  A
O2778     Ni2796   1.896       .  S
O2778      C2780   1.266       .  A
Ni2779     O2782   1.920       .  S
Ni2779     O2784   1.893       .  S
C2780      O2790   1.279       .  A
C2780      C3333   1.442       .  S
O2781     Ni2797   1.922       .  S
O2781      C2787   1.273       .  A
O2782      C2787   1.272       .  A
C2783      C3341   1.445       .  S
O2784      C2786   1.262       .  A
O2785     Ni2796   1.940       .  S
C2786      O2792   1.270       .  A
C2787      C3335   1.437       .  S
H2788      O2789   0.966       .  S
O2789     Ni2797   1.911       .  S
O2789     Ni2791   1.909       .  S
O2789     Ni2796   1.896       .  S
O2790     Ni2791   1.950       .  S
Ni2791     O2795   1.939       .  S
Ni2791     O2793   1.941       .  S
O2792     Ni2797   1.938       .  S
C2794      O2795   1.276       .  A
C2794      C3339   1.442       .  S
O2799     Ni2805   1.961       .  S
O2799      C2820   1.278       .  A
O2800     Ni2823   1.939       .  S
O2800      C2809   1.276       .  A
O2801     Ni2805   1.893       .  S
O2801     Ni2823   1.908       .  S
O2801     Ni2817   1.910       .  S
O2801      H2824   0.966       .  S
C2802      O2819   1.273       .  A
C2802      O2811   1.273       .  A
C2802      C3330   1.434       .  S
O2803     Ni2822   1.906       .  S
O2803      C2809   1.260       .  A
O2804     Ni2822   1.897       .  S
O2804      C2806   1.263       .  A
Ni2805     O2808   1.939       .  S
Ni2805     O2810   1.899       .  S
C2806      O2816   1.269       .  A
C2806      C3326   1.433       .  S
O2807     Ni2823   1.942       .  S
O2807      C2813   1.284       .  A
O2808      C2813   1.283       .  A
C2809      C3340   1.442       .  S
O2810      C2812   1.266       .  A
O2811     Ni2822   1.920       .  S
C2812      O2818   1.280       .  A
C2813      C3328   1.453       .  S
H2814      O2815   0.967       .  S
O2815     Ni2823   1.923       .  S
O2815     Ni2817   1.907       .  S
O2815     Ni2822   1.913       .  S
O2816     Ni2817   1.935       .  S
Ni2817     O2821   1.895       .  S
Ni2817     O2819   1.919       .  S
O2818     Ni2823   1.952       .  S
C2820      O2821   1.262       .  A
C2820      C3344   1.448       .  S
O2825     Ni2831   1.894       .  S
O2825      C2846   1.262       .  A
O2826     Ni2849   1.888       .  S
O2826      C2835   1.260       .  A
O2827     Ni2831   1.918       .  S
O2827     Ni2849   1.909       .  S
O2827     Ni2843   1.939       .  S
O2827      H2850   0.967       .  S
C2828      O2845   1.283       .  A
C2828      O2837   1.283       .  A
C2828      C3315   1.457       .  S
O2829     Ni2848   1.961       .  S
O2829      C2835   1.277       .  A
O2830     Ni2848   1.899       .  S
O2830      C2832   1.267       .  A
Ni2831     O2836   1.902       .  S
C2832      O2842   1.282       .  A
C2832      C3338   1.450       .  S
O2833      C2839   1.270       .  A
O2834      C2839   1.271       .  A
C2835      C3321   1.445       .  S
O2836      C2838   1.268       .  A
O2837     Ni2848   1.942       .  S
C2838      O2844   1.277       .  A
C2838      C4488   1.438       .  S
C2839      C3317   1.436       .  S
H2840      O2841   0.966       .  S
O2841     Ni2849   1.904       .  S
O2841     Ni2843   1.902       .  S
O2841     Ni2848   1.898       .  S
O2842     Ni2843   1.959       .  S
Ni2843     O2847   1.930       .  S
Ni2843     O2845   1.943       .  S
O2844     Ni2849   1.956       .  S
C2846      O2847   1.278       .  A
C2846      C3320   1.431       .  S
O2851     Ni2857   1.962       .  S
O2851      C2872   1.278       .  A
O2852     Ni2875   1.929       .  S
O2852      C2861   1.277       .  A
O2853     Ni2857   1.900       .  S
O2853     Ni2875   1.905       .  S
O2853     Ni2869   1.904       .  S
O2853      H2876   0.966       .  S
C2854      O2871   1.266       .  A
C2854      O2863   1.265       .  A
C2854      C3314   1.433       .  S
O2855     Ni2874   1.894       .  S
O2855      C2861   1.261       .  A
O2856     Ni2874   1.898       .  S
O2856      C2858   1.267       .  A
Ni2857     O2860   1.943       .  S
Ni2857     O2862   1.900       .  S
C2858      O2868   1.276       .  A
C2858      C3329   1.435       .  S
O2859     Ni2875   1.939       .  S
O2859      C2865   1.282       .  A
O2860      C2865   1.283       .  A
C2861      C3319   1.431       .  S
O2862      C2864   1.267       .  A
O2863     Ni2874   1.916       .  S
C2864      O2870   1.281       .  A
C2864      C4479   1.447       .  S
H2866      O2867   0.967       .  S
O2867     Ni2875   1.936       .  S
O2867     Ni2869   1.912       .  S
O2867     Ni2874   1.918       .  S
O2868     Ni2869   1.954       .  S
Ni2869     O2873   1.891       .  S
Ni2869     O2871   1.917       .  S
O2870     Ni2875   1.954       .  S
C2872      O2873   1.261       .  A
C2872      C3351   1.447       .  S
O2877     Ni2883   1.909       .  S
O2877      C2898   1.261       .  A
O2878     Ni2901   1.896       .  S
O2878      C2887   1.264       .  A
O2879     Ni2883   1.911       .  S
O2879     Ni2901   1.907       .  S
O2879     Ni2895   1.921       .  S
O2879      H2902   0.967       .  S
C2880      O2897   1.281       .  A
C2880      O2889   1.282       .  A
C2880      C3334   1.446       .  S
O2881     Ni2900   1.957       .  S
O2881      C2887   1.277       .  A
O2882     Ni2900   1.900       .  S
O2882      C2884   1.266       .  A
Ni2883     O4038   1.919       .  S
Ni2883     O2888   1.896       .  S
C2884      O2894   1.284       .  A
C2884      C3316   1.453       .  S
O2885     Ni4053   1.919   1_545  S
O2885      C2891   1.274       .  A
O2886     Ni4035   1.919   1_545  S
O2886      C2891   1.273       .  A
C2887      C3307   1.446       .  S
O2888      C2890   1.263       .  A
O2889     Ni2900   1.936       .  S
C2890      O2896   1.271       .  A
C2890      C3318   1.437       .  S
C2891      C3332   1.433       .  S
H2892      O2893   0.966       .  S
O2893     Ni2901   1.907       .  S
O2893     Ni2895   1.904       .  S
O2893     Ni2900   1.891       .  S
O2894     Ni2895   1.964       .  S
Ni2895     O2899   1.932       .  S
Ni2895     O2897   1.935       .  S
O2896     Ni2901   1.943       .  S
C2898      O2899   1.275       .  A
C2898      C3310   1.437       .  S
Ni2901     O4037   1.918       .  S
O2903     Ni2909   1.954       .  S
O2903      C2924   1.275       .  A
O2904     Ni2927   1.932       .  S
O2904      C2913   1.275       .  A
O2905     Ni2909   1.895       .  S
O2905     Ni2927   1.906       .  S
O2905     Ni2921   1.905       .  S
O2905      H2928   0.966       .  S
C2906      O2923   1.271       .  A
C2906      O2915   1.271       .  A
C2906      C3325   1.431       .  S
O2907     Ni2926   1.907       .  S
O2907      C2913   1.261       .  A
O2908     Ni2926   1.899       .  S
O2908      C2910   1.264       .  A
Ni2909     O2912   1.933       .  S
Ni2909     O2914   1.897       .  S
C2910      O2920   1.269       .  A
C2910      C3313   1.435       .  S
O2911     Ni2927   1.939       .  S
O2911      C2917   1.282       .  A
O2912      C2917   1.282       .  A
C2913      C3309   1.437       .  S
O2914      C2916   1.266       .  A
O2915     Ni2926   1.915       .  S
C2916      O2922   1.280       .  A
C2916      C3311   1.444       .  S
C2917      C4475   1.448       .  S
H2918      O2919   0.967       .  S
O2919     Ni2927   1.922       .  S
O2919     Ni2921   1.910       .  S
O2919     Ni2926   1.913       .  S
O2920     Ni2921   1.935       .  S
Ni2921     O2925   1.890       .  S
Ni2921     O2923   1.917       .  S
O2922     Ni2927   1.954       .  S
C2924      O2925   1.261       .  A
C2924      C3368   1.441       .  S
O2929     Ni2935   1.905       .  S
O2929      C2950   1.260       .  A
O2930     Ni2953   1.894       .  S
O2930      C2939   1.264       .  A
O2931     Ni2935   1.910       .  S
O2931     Ni2953   1.904       .  S
O2931     Ni2947   1.926       .  S
O2931      H2954   0.967       .  S
C2932      O2949   1.285       .  A
C2932      O2941   1.283       .  A
C2932      C3300   1.455       .  S
O2933     Ni2952   1.957       .  S
O2933      C2939   1.277       .  A
O2934     Ni2952   1.897       .  S
O2934      C2936   1.266       .  A
Ni2935     O2940   1.894       .  S
C2936      O2946   1.279       .  A
C2936      C3303   1.442       .  S
O2937      C2943   1.274       .  A
O2938      C2943   1.273       .  A
C2939      C3322   1.446       .  S
O2940      C2942   1.263       .  A
O2941     Ni2952   1.938       .  S
C2942      O2948   1.271       .  A
C2942      C3302   1.435       .  S
C2943      C3298   1.437       .  S
H2944      O2945   0.966       .  S
O2945     Ni2953   1.911       .  S
O2945     Ni2947   1.904       .  S
O2945     Ni2952   1.892       .  S
O2946     Ni2947   1.950       .  S
Ni2947     O2951   1.932       .  S
Ni2947     O2949   1.946       .  S
O2948     Ni2953   1.939       .  S
C2950      O2951   1.274       .  A
C2950      C3306   1.435       .  S
O2955     Ni2961   1.963       .  S
O2955      C2976   1.279       .  A
O2956     Ni2979   1.931       .  S
O2956      C2965   1.274       .  A
O2957     Ni2961   1.893       .  S
O2957     Ni2979   1.905       .  S
O2957     Ni2973   1.912       .  S
O2957      H2980   0.966       .  S
C2958      O2975   1.275       .  A
C2958      O2967   1.273       .  A
C2958      C3293   1.440       .  S
O2959     Ni2978   1.906       .  S
O2959      C2965   1.260       .  A
O2960     Ni2978   1.898       .  S
O2960      C2962   1.263       .  A
Ni2961     O2964   1.942       .  S
Ni2961     O2966   1.898       .  S
C2962      O2972   1.268       .  A
C2962      C3289   1.434       .  S
O2963     Ni2979   1.941       .  S
O2963      C2969   1.283       .  A
O2964      C2969   1.284       .  A
C2965      C3305   1.434       .  S
O2966      C2968   1.266       .  A
O2967     Ni2978   1.922       .  S
C2968      O2974   1.279       .  A
C2968      C3287   1.443       .  S
H2970      O2971   0.967       .  S
O2971     Ni2979   1.926       .  S
O2971     Ni2973   1.905       .  S
O2971     Ni2978   1.913       .  S
O2972     Ni2973   1.933       .  S
Ni2973     O2977   1.891       .  S
Ni2973     O2975   1.925       .  S
O2974     Ni2979   1.950       .  S
C2976      O2977   1.262       .  A
C2976      C3295   1.447       .  S
O2981     Ni2987   1.899       .  S
O2981      C3002   1.263       .  A
O2982     Ni3005   1.891       .  S
O2982      C2991   1.262       .  A
O2983     Ni2987   1.917       .  S
O2983     Ni3005   1.912       .  S
O2983     Ni2999   1.938       .  S
O2983      H3006   0.967       .  S
C2984      O3001   1.282       .  A
C2984      O2993   1.281       .  A
C2984      C3283   1.449       .  S
O2985     Ni3004   1.957       .  S
O2985      C2991   1.277       .  A
O2986     Ni3004   1.902       .  S
O2986      C2988   1.267       .  A
Ni2987     O2990   1.921       .  S
Ni2987     O2992   1.900       .  S
C2988      O2998   1.282       .  A
C2988      C3299   1.452       .  S
O2989     Ni3005   1.919       .  S
O2989      C2995   1.267       .  A
O2990      C2995   1.266       .  A
C2991      C3342   1.444       .  S
O2992      C2994   1.267       .  A
O2993     Ni3004   1.935       .  S
C2994      O3000   1.277       .  A
C2994      C4449   1.437   1_545  S
C2995      C3285   1.436       .  S
H2996      O2997   0.966       .  S
O2997     Ni3005   1.901       .  S
O2997     Ni2999   1.900       .  S
O2997     Ni3004   1.896       .  S
O2998     Ni2999   1.958       .  S
Ni2999     O3003   1.927       .  S
Ni2999     O3001   1.940       .  S
O3000     Ni3005   1.957       .  S
C3002      O3003   1.277       .  A
C3002      C3281   1.432       .  S
O3007     Ni3013   1.965       .  S
O3007      C3028   1.278       .  A
O3008     Ni3031   1.927       .  S
O3008      C3017   1.276       .  A
O3009     Ni3013   1.901       .  S
O3009     Ni3031   1.906       .  S
O3009     Ni3025   1.903       .  S
O3009      H3032   0.966       .  S
C3010      O3027   1.266       .  A
C3010      O3019   1.266       .  A
C3010      C3278   1.432       .  S
O3011     Ni3030   1.899       .  S
O3011      C3017   1.263       .  A
O3012     Ni3030   1.899       .  S
O3012      C3014   1.267       .  A
Ni3013     O3016   1.944       .  S
Ni3013     O3018   1.900       .  S
C3014      O3024   1.279       .  A
C3014      C3294   1.440       .  S
O3015     Ni3031   1.939       .  S
O3015      C3021   1.281       .  A
O3016      C3021   1.283       .  A
C3017      C3282   1.432       .  S
O3018      C4172   1.267   1_545  A
O3019     Ni3030   1.919       .  S
C3020      O4170   1.266       .  A
C3020      O4178   1.281       .  A
C3020      C3292   1.448       .  S
C3021      C3275   1.456       .  S
H3022      O3023   0.967       .  S
O3023     Ni3031   1.935       .  S
O3023     Ni3025   1.912       .  S
O3023     Ni3030   1.917       .  S
O3024     Ni3025   1.961       .  S
Ni3025     O3029   1.894       .  S
Ni3025     O3027   1.915       .  S
O3026     Ni3031   1.953       .  S
O3026      C4172   1.280   1_545  A
C3028      O3029   1.262       .  A
C3028      C3279   1.452       .  S
O3033     Ni3039   1.910       .  S
O3033      C3054   1.262       .  A
O3034     Ni3057   1.896       .  S
O3034      C3043   1.263       .  A
O3035     Ni3039   1.910       .  S
O3035     Ni3057   1.909       .  S
O3035     Ni3051   1.916       .  S
O3035      H3058   0.966       .  S
C3036      O3053   1.281       .  A
C3036      O3045   1.282       .  A
C3036      C3304   1.447       .  S
O3037     Ni3056   1.958       .  S
O3037      C3043   1.277       .  A
O3038     Ni3056   1.902       .  S
O3038      C3040   1.267       .  A
Ni3039     O4194   1.921   1_545  S
Ni3039     O3044   1.899       .  S
C3040      O3050   1.280       .  A
C3040      C3284   1.447       .  S
O3041     Ni4209   1.917       .  S
O3041      C3047   1.272       .  A
O3042     Ni4191   1.919       .  S
O3042      C3047   1.273       .  A
C3043      C3308   1.447       .  S
O3044      C3046   1.263       .  A
O3045     Ni3056   1.935       .  S
C3046      O3052   1.271       .  A
C3047      C3301   1.433       .  S
H3048      O3049   0.966       .  S
O3049     Ni3057   1.908       .  S
O3049     Ni3051   1.910       .  S
O3049     Ni3056   1.896       .  S
O3050     Ni3051   1.953       .  S
Ni3051     O3055   1.935       .  S
Ni3051     O3053   1.936       .  S
O3052     Ni3057   1.945       .  S
C3054      O3055   1.277       .  A
C3054      C3273   1.440       .  S
Ni3057     O4193   1.915   1_545  S
O3059     Ni3065   1.957       .  S
O3059      C3080   1.276       .  A
O3060     Ni3083   1.938       .  S
O3060      C3069   1.277       .  A
O3061     Ni3065   1.893       .  S
O3061     Ni3083   1.909       .  S
O3061     Ni3077   1.912       .  S
O3061      H3084   0.966       .  S
C3062      O3079   1.274       .  A
C3062      O3071   1.272       .  A
C3062      C3290   1.432       .  S
O3063     Ni3082   1.908       .  S
O3063      C3069   1.261       .  A
O3064     Ni3082   1.898       .  S
O3064      C3066   1.263       .  A
Ni3065     O3068   1.937       .  S
Ni3065     O3070   1.899       .  S
C3066      O3076   1.269       .  A
C3066      C3277   1.434       .  S
O3067     Ni3083   1.938       .  S
O3067      C3073   1.282       .  A
O3068      C3073   1.282       .  A
C3069      C3274   1.441       .  S
O3070      C3072   1.267   1_655  A
O3071     Ni3082   1.917       .  S
C3072      O3078   1.284   1_455  A
C3073      C4440   1.450   1_545  S
H3074      O3075   0.966       .  S
O3075     Ni3083   1.920       .  S
O3075     Ni3077   1.908       .  S
O3075     Ni3082   1.912       .  S
O3076     Ni3077   1.937       .  S
Ni3077     O3081   1.895       .  S
Ni3077     O3079   1.920       .  S
O3078     Ni3083   1.962       .  S
C3080      O3081   1.263       .  A
C3080      C3271   1.446       .  S
O3085     Ni3091   1.959       .  S
O3085      C3106   1.277       .  A
O3086     Ni3109   1.928       .  S
O3086      C3095   1.277       .  A
O3087     Ni3091   1.898       .  S
O3087     Ni3109   1.901       .  S
O3087     Ni3103   1.903       .  S
O3087      H3110   0.966       .  S
C3088      O3105   1.266       .  A
C3088      O3097   1.265       .  A
C3088      C3261   1.435       .  S
O3089     Ni3108   1.896       .  S
O3089      C3095   1.262       .  A
O3090     Ni3108   1.897       .  S
O3090      C3092   1.267       .  A
Ni3091     O3094   1.940       .  S
Ni3091     O3096   1.900       .  S
C3092      O3102   1.278       .  A
C3092      C3266   1.437       .  S
O3093     Ni3109   1.941       .  S
O3093      C3099   1.282       .  A
O3094      C3099   1.283       .  A
C3095      C3270   1.431       .  S
O3096      C3098   1.267       .  A
O3097     Ni3108   1.917       .  S
C3098      O3104   1.282       .  A
C3098      C3268   1.450       .  S
C3099      C3263   1.454       .  S
H3100      O3101   0.967       .  S
O3101     Ni3109   1.939       .  S
O3101     Ni3103   1.914       .  S
O3101     Ni3108   1.919       .  S
O3102     Ni3103   1.957       .  S
Ni3103     O3107   1.893       .  S
Ni3103     O3105   1.918       .  S
O3104     Ni3109   1.958       .  S
C3106      O3107   1.263       .  A
C3106      C3296   1.448       .  S
O3111     Ni3117   1.895       .  S
O3111      C3132   1.262       .  A
O3112     Ni3135   1.891       .  S
O3112      C3121   1.262       .  A
O3113     Ni3117   1.917       .  S
O3113     Ni3135   1.911       .  S
O3113     Ni3129   1.941       .  S
O3113      H3136   0.967       .  S
C3114      O3131   1.283       .  A
C3114      O3123   1.282       .  A
C3114      C3253   1.453       .  S
O3115     Ni3134   1.954       .  S
O3115      C3121   1.276       .  A
O3116     Ni3134   1.897       .  S
O3116      C3118   1.266       .  A
Ni3117     O3120   1.919       .  S
Ni3117     O3122   1.898       .  S
C3118      O3128   1.282       .  A
C3118      C3258   1.449       .  S
O3119     Ni3135   1.923       .  S
O3119      C3125   1.268       .  A
O3120      C3125   1.265       .  A
C3121      C3403   1.443       .  S
O3122      C3124   1.267       .  A
O3123     Ni3134   1.937       .  S
C3124      O3130   1.278       .  A
C3124      C3259   1.434       .  S
C3125      C3255   1.437       .  S
H3126      O3127   0.966       .  S
O3127     Ni3135   1.903       .  S
O3127     Ni3129   1.900       .  S
O3127     Ni3134   1.897       .  S
O3128     Ni3129   1.958       .  S
Ni3129     O3133   1.929       .  S
Ni3129     O3131   1.944       .  S
O3130     Ni3135   1.956       .  S
C3132      O3133   1.278       .  A
C3132      C3269   1.431       .  S
O3137     Ni3143   1.957       .  S
O3138     Ni3161   1.938       .  S
O3138      C3147   1.276       .  A
O3139     Ni3143   1.891       .  S
O3139     Ni3161   1.907       .  S
O3139      H3162   0.966       .  S
C3140      O3157   1.272       .  A
C3140      O3149   1.274       .  A
C3140      C3247   1.431       .  S
O3141     Ni3160   1.908       .  S
O3142     Ni3160   1.898       .  S
O3142      C3144   1.263       .  A
Ni3143     O3146   1.935       .  S
Ni3143     O3148   1.900       .  S
C3144      O3154   1.270       .  A
C3144      C3262   1.437       .  S
O3145     Ni3161   1.934       .  S
O3145      C3151   1.281       .  A
O3146      C3151   1.282       .  A
C3147      C3252   1.442       .  S
O3148      C3150   1.267       .  A
O3149     Ni3160   1.922       .  S
C3150      O3156   1.282       .  A
C3150      C3264   1.450       .  S
C3151      C3249   1.444       .  S
H3152      O3153   0.967       .  S
O3153     Ni3155   1.906       .  S
O3153     Ni3160   1.911       .  S
O3154     Ni3155   1.942       .  S
Ni3155     O3159   1.894       .  S
Ni3155     O3157   1.912       .  S
O3156     Ni3161   1.959       .  S
C3158      O3159   1.263   1_455  A
C3158      C3272   1.446   1_455  S
O3163     Ni3169   1.910       .  S
O3164     Ni3187   1.890       .  S
O3164      C3173   1.261       .  A
O3165     Ni3169   1.912       .  S
O3165     Ni3187   1.907       .  S
O3165      H3188   0.967       .  S
C3166      O3183   1.281       .  A
C3166      O3175   1.282       .  A
C3166      C3243   1.446       .  S
O3167     Ni3186   1.959       .  S
O3168     Ni3186   1.901       .  S
O3168      C3170   1.267       .  A
Ni3169     O3172   1.918       .  S
Ni3169     O3174   1.902       .  S
C3170      O3180   1.282       .  A
C3170      C3254   1.450       .  S
O3171     Ni3187   1.917       .  S
O3171      C3177   1.272       .  A
O3172      C3177   1.272       .  A
C3173      C3379   1.441       .  S
O3174      C3176   1.265       .  A
O3175     Ni3186   1.935       .  S
C3176      O3182   1.269       .  A
C3176      C3256   1.439       .  S
C3177      C3245   1.431       .  S
H3178      O3179   0.966       .  S
O3179     Ni3181   1.910       .  S
O3179     Ni3186   1.896       .  S
O3180     Ni3181   1.958       .  S
Ni3181     O3185   1.933       .  S
Ni3181     O3183   1.934       .  S
O3182     Ni3187   1.939       .  S
C3184      O3185   1.276   1_455  A
C3184      C3251   1.438   1_455  S
O3189     Ni3195   1.956       .  S
O3189      C4362   1.276       .  A
O3190     Ni3213   1.931       .  S
O3190      C3199   1.274       .  A
O3191     Ni3195   1.894       .  S
O3191     Ni3213   1.905       .  S
O3191     Ni4359   1.913       .  S
O3191      H3214   0.966       .  S
C3192      O3209   1.275       .  A
C3192      O3201   1.274       .  A
C3192      C3265   1.436       .  S
O3193     Ni3212   1.901       .  S
O3193      C4351   1.258   1_545  A
O3194     Ni3212   1.894       .  S
O3194      C3196   1.263       .  A
Ni3195     O3198   1.938       .  S
Ni3195     O3200   1.897       .  S
C3196      O3206   1.269       .  A
C3196      C3248   1.432       .  S
O3197     Ni3213   1.943       .  S
O3197      C3203   1.284       .  A
O3198      C3203   1.283       .  A
C3199      O4345   1.260       .  A
C3199      C3242   1.436       .  S
O3200      C3202   1.266       .  A
O3201     Ni3212   1.917       .  S
C3202      O3208   1.278       .  A
C3202      C3250   1.440       .  S
C3203      C3267   1.453       .  S
H3204      O3205   0.966       .  S
O3205     Ni4365   1.928   1_545  S
O3205     Ni3207   1.903       .  S
O3205     Ni3212   1.910       .  S
O3206     Ni3207   1.934       .  S
Ni3207     O3211   1.895       .  S
Ni3207     O3209   1.923       .  S
Ni3207     O4343   1.910   1_545  S
O3208     Ni3213   1.946       .  S
C3210      O4341   1.279   1_545  A
C3210      O3211   1.264       .  A
C3210      C3280   1.452       .  S
Ni3213     O4357   1.924       .  S
O3215     Ni3221   1.905       .  S
O3215      C4388   1.260       .  A
O3216     Ni3239   1.888       .  S
O3216      C3225   1.260       .  A
O3217     Ni3221   1.912       .  S
O3217     Ni3239   1.903       .  S
O3217     Ni4385   1.924       .  S
O3217      H3240   0.967       .  S
C3218      O3235   1.283       .  A
C3218      O3227   1.284       .  A
C3218      C3257   1.453       .  S
O3219     Ni3238   1.963       .  S
O3219      C4377   1.278   1_545  A
O3220     Ni3238   1.899       .  S
O3220      C3222   1.266       .  A
Ni3221     O3224   1.924       .  S
Ni3221     O3226   1.896       .  S
C3222      O3232   1.279       .  A
C3222      C3244   1.442       .  S
O3223     Ni3239   1.916       .  S
O3223      C3229   1.272       .  A
O3224      C3229   1.274       .  A
C3225      O4371   1.276       .  A
C3225      C3388   1.440       .  S
O3226      C3228   1.262       .  A
O3227     Ni3238   1.942       .  S
C3228      O3234   1.268       .  A
C3228      C3246   1.433       .  S
C3229      C3260   1.434       .  S
H3230      O3231   0.966       .  S
O3231     Ni4391   1.911   1_545  S
O3231     Ni3233   1.907       .  S
O3231     Ni3238   1.894       .  S
O3232     Ni3233   1.948       .  S
Ni3233     O3237   1.936       .  S
Ni3233     O3235   1.939       .  S
Ni3233     O4369   1.924   1_545  S
O3234     Ni3239   1.935       .  S
C3236      O4367   1.259       .  A
C3236      O3237   1.275   1_565  A
C3236      C3241   1.438   1_565  S
Ni3239     O4383   1.907       .  S
C3241      C4394   1.209   1_546  T
C3242      C4393   1.208   1_554  T
C3243      C3244   1.212       .  T
C3245      C3246   1.204       .  T
C3247      C3248   1.204       .  T
C3249      C3250   1.211       .  T
C3253      C3254   1.216       .  T
C3255      C3256   1.208       .  T
C3257      C3258   1.216       .  T
C3259      C3260   1.205       .  T
C3261      C3262   1.207       .  T
C3263      C3264   1.217       .  T
C3265      C3266   1.207       .  T
C3267      C3268   1.216       .  T
C3269      C3270   1.206   1_556  T
C3271      C3272   1.212       .  T
C3273      C3274   1.211       .  T
C3275      C3276   1.218       .  T
C3277      C3278   1.205       .  T
C3279      C3280   1.216       .  T
C3281      C3282   1.206       .  T
C3283      C3284   1.214       .  T
C3285      C3286   1.207       .  T
C3287      C3288   1.212       .  T
C3288      C4225   1.447       .  S
C3289      C3290   1.205       .  T
C3291      C3292   1.215       .  T
C3293      C3294   1.209       .  T
C3295      C3296   1.213       .  T
C3297      C4146   1.437       .  S
C3297      C3298   1.207       .  T
C3299      C3300   1.217       .  T
C3301      C3302   1.206       .  T
C3303      C3304   1.212       .  T
C3305      C3306   1.207       .  T
C3307      C4460   1.212       .  T
C3308      C4459   1.213   1_545  T
C3309      C3310   1.208       .  T
C3311      C3312   1.213       .  T
C3313      C3314   1.206       .  T
C3315      C3316   1.218       .  T
C3317      C3318   1.207       .  T
C3319      C3320   1.206       .  T
C3323      C4069   1.447   1_545  S
C3323      C3324   1.212       .  T
C3325      C3326   1.204       .  T
C3327      C4016   1.449   1_545  S
C3327      C3328   1.216       .  T
C3329      C3330   1.206       .  T
C3331      C3332   1.205       .  T
C3333      C3334   1.212       .  T
C3335      C3336   1.208       .  T
C3336      C3990   1.438   1_545  S
C3337      C3338   1.216       .  T
C3339      C3340   1.211       .  T
C3341      C3342   1.212       .  T
C3343      C3344   1.214       .  T
C3347      C3348   1.206       .  T
C3349      C3350   1.216       .  T
C3351      C3352   1.213       .  T
C3353      C4506   1.209       .  T
C3354      C4505   1.209       .  T
C3355      C3356   1.213       .  T
C3357      C3358   1.206       .  T
C3359      C3360   1.214       .  T
C3361      C3362   1.205       .  T
C3363      C3364   1.214       .  T
C3365      C3366   1.205       .  T
C3367      C3368   1.209       .  T
C3369      C3370   1.216       .  T
C3371      C3372   1.208       .  T
C3373      C3374   1.216       .  T
C3375      C3376   1.206       .  T
C3377      C3378   1.207       .  T
C3379      C3380   1.210       .  T
C3381      C3382   1.209       .  T
C3383      C3384   1.216       .  T
C3385      C3386   1.205       .  T
C3387      C3388   1.209       .  T
C3389      C3390   1.204       .  T
C3391      C3392   1.216       .  T
C3393      C3394   1.205       .  T
C3395      C3396   1.207       .  T
C3397      C3398   1.214       .  T
C3399      C3400   1.215       .  T
C3401      C3698   1.430   1_545  S
C3401      C3402   1.203       .  T
C3403      C3404   1.211       .  T
C3405      C3406   1.209       .  T
C3407      C3672   1.448   1_545  S
C3407      C3408   1.215       .  T
C3409      C3410   1.206       .  T
C3411      C3720   1.450   1_545  S
C3411      C3412   1.214       .  T
C3413      C3414   1.207       .  T
C3415      C4568   1.215   1_545  T
C3416      C4567   1.216       .  T
C3417      C3418   1.208       .  T
C3419      C3420   1.214       .  T
C3421      C3422   1.216       .  T
C3423      C3424   1.208       .  T
C3425      C3426   1.213       .  T
C3427      C3428   1.213       .  T
C3428      C3564   1.448       .  S
C3429      C3430   1.208       .  T
C3431      C3432   1.208       .  T
C3433      C3434   1.212       .  T
C3435      C3436   1.209       .  T
C3436      C3490   1.439       .  S
C3437      C3438   1.213       .  T
C3439      C3440   1.204       .  T
C3441      C3442   1.212       .  T
C3445      C3446   1.204       .  T
C3447      C3448   1.215       .  T
C3449      C3450   1.212       .  T
C3451      C3452   1.213       .  T
C3453      C3454   1.206       .  T
C3455      C3456   1.213       .  T
O3457     Ni3463   1.903       .  S
O3457      C3478   1.264       .  A
O3458     Ni3481   1.888       .  S
O3458      C3467   1.260       .  A
O3459     Ni3463   1.916       .  S
O3459     Ni3481   1.913       .  S
O3459     Ni3475   1.935       .  S
O3459      H3482   0.967       .  S
C3460      O3477   1.283       .  A
C3460      O3469   1.282       .  A
O3461     Ni3480   1.957       .  S
O3461      C3467   1.275       .  A
O3462     Ni3480   1.898       .  S
Ni3463     O3466   1.920       .  S
Ni3463     O3468   1.901       .  S
C3464      C4604   1.451       .  S
O3465     Ni3481   1.914       .  S
O3465      C3471   1.266       .  A
O3466      C3471   1.267       .  A
C3467      C4608   1.442       .  S
O3468      C3470   1.268       .  A
O3469     Ni3480   1.935       .  S
C3470      O3476   1.276       .  A
C3470      C4602   1.437       .  S
C3471      C4597   1.433       .  S
H3472      O3473   0.966       .  S
O3473     Ni3481   1.898       .  S
O3473     Ni3475   1.902       .  S
O3473     Ni3480   1.898       .  S
O3474     Ni3475   1.953       .  S
Ni3475     O3479   1.931       .  S
Ni3475     O3477   1.940       .  S
O3476     Ni3481   1.952       .  S
C3478      O3479   1.278       .  A
C3478      C4605   1.437       .  S
O3483     Ni3489   1.958       .  S
O3483      C3504   1.276       .  A
O3484     Ni3507   1.936       .  S
O3484      C3493   1.280       .  A
O3485     Ni3489   1.897       .  S
O3485     Ni3507   1.902       .  S
O3485     Ni3501   1.898       .  S
O3485      H3508   0.966       .  S
C3486      O3503   1.275       .  A
C3486      O3495   1.272       .  A
C3486      C4592   1.435       .  S
O3487     Ni3506   1.896       .  S
O3487      C3493   1.263       .  A
O3488     Ni3506   1.899       .  S
O3488      C3490   1.268       .  A
Ni3489     O3492   1.937       .  S
Ni3489     O3494   1.897       .  S
C3490      O3500   1.281       .  A
O3491     Ni3507   1.944       .  S
O3491      C3497   1.284       .  A
O3492      C3497   1.282       .  A
C3493      C4606   1.437       .  S
O3494      C3496   1.266       .  A
C3496      O3502   1.282       .  A
C3496      C4589   1.449       .  S
C3497      C4594   1.454       .  S
H3498      O3499   0.967       .  S
O3499     Ni3507   1.945       .  S
O3499     Ni3501   1.913       .  S
O3499     Ni3506   1.919       .  S
O3500     Ni3501   1.964       .  S
Ni3501     O3505   1.892       .  S
O3502     Ni3507   1.960       .  S
C3504      O3505   1.262       .  A
C3504      C4596   1.444       .  S
O3509     Ni3515   1.905       .  S
O3509      C3530   1.260       .  A
O3510     Ni3533   1.892       .  S
O3510      C3519   1.263       .  A
O3511     Ni3515   1.911       .  S
O3511     Ni3533   1.905       .  S
O3511     Ni3527   1.923       .  S
O3511      H3534   0.967       .  S
C3512      O3529   1.282       .  A
C3512      O3521   1.284       .  A
C3512      C4603   1.454       .  S
O3513     Ni3532   1.963       .  S
O3513      C3519   1.278       .  A
O3514     Ni3532   1.899       .  S
Ni3515     O3518   1.917       .  S
Ni3515     O3520   1.895       .  S
C3516      C4579   1.449       .  S
O3517     Ni3533   1.923       .  S
O3517      C3523   1.274       .  A
O3518      C3523   1.272       .  A
C3519      C4586   1.448       .  S
O3520      C3522   1.263       .  A
O3521     Ni3532   1.943       .  S
C3522      O3528   1.271       .  A
C3522      C4582   1.435       .  S
C3523      C4601   1.435       .  S
H3524      O3525   0.966       .  S
O3525     Ni3533   1.912       .  S
O3525     Ni3527   1.903       .  S
O3525     Ni3532   1.893       .  S
O3526     Ni3527   1.955       .  S
Ni3527     O3531   1.926       .  S
Ni3527     O3529   1.940       .  S
O3528     Ni3533   1.940       .  S
C3530      O3531   1.274       .  A
C3530      C4583   1.431       .  S
O3535     Ni3541   1.961       .  S
O3535      C3556   1.278       .  A
O3536     Ni3559   1.923       .  S
O3536      C3545   1.274       .  A
O3537     Ni3541   1.899       .  S
O3537     Ni3559   1.903       .  S
O3537     Ni3553   1.905       .  S
O3537      H3560   0.966       .  S
C3538      O3555   1.269       .  A
C3538      O3547   1.267       .  A
C3538      C4587   1.438       .  S
O3539     Ni3558   1.903       .  S
O3539      C3545   1.263       .  A
O3540     Ni3558   1.900       .  S
O3540      C3542   1.266       .  A
Ni3541     O3544   1.941       .  S
Ni3541     O3546   1.900       .  S
C3542      O3552   1.275       .  A
O3543     Ni3559   1.941       .  S
O3543      C3549   1.282       .  A
O3544      C3549   1.283       .  A
C3545      C4584   1.430       .  S
O3546      C3548   1.266       .  A
O3547     Ni3558   1.919       .  S
C3548      O3554   1.280       .  A
C3548      C4574   1.447       .  S
C3549      C4590   1.454       .  S
H3550      O3551   0.967       .  S
O3551     Ni3559   1.932       .  S
O3551     Ni3553   1.913       .  S
O3551     Ni3558   1.918       .  S
O3552     Ni3553   1.950       .  S
Ni3553     O3557   1.893       .  S
Ni3553     O3555   1.920       .  S
O3554     Ni3559   1.953       .  S
C3556      O3557   1.262       .  A
C3556      C4578   1.448       .  S
O3561     Ni3567   1.909       .  S
O3561      C3582   1.261       .  A
O3562     Ni3585   1.891       .  S
O3562      C3571   1.261       .  A
O3563     Ni3567   1.909       .  S
O3563     Ni3585   1.904       .  S
O3563     Ni3579   1.920       .  S
O3563      H3586   0.967       .  S
C3564      O3581   1.282       .  A
C3564      O3573   1.283       .  A
O3565     Ni3584   1.959       .  S
O3565      C3571   1.276       .  A
O3566     Ni3584   1.893       .  S
O3566      C3568   1.265       .  A
Ni3567     O3570   1.921       .  S
Ni3567     O3572   1.897       .  S
C3568      O3578   1.281       .  A
C3568      C4600   1.441       .  S
O3569     Ni3585   1.919       .  S
O3569      C3575   1.274       .  A
O3570      C3575   1.274       .  A
C3571      C4572   1.445       .  S
O3572      C3574   1.263       .  A
O3573     Ni3584   1.936       .  S
C3574      O3580   1.268       .  A
C3574      C4598   1.435       .  S
C3575      C4581   1.434       .  S
H3576      O3577   0.966       .  S
O3577     Ni3585   1.911       .  S
O3577     Ni3579   1.909       .  S
O3577     Ni3584   1.894       .  S
O3578     Ni3579   1.953       .  S
Ni3579     O3583   1.937       .  S
Ni3579     O3581   1.938       .  S
O3580     Ni3585   1.936       .  S
C3582      O3583   1.276       .  A
C3582      C4569   1.441       .  S
O3587     Ni3593   1.962       .  S
O3587      C3608   1.279       .  A
O3588     Ni3611   1.939       .  S
O3588      C3597   1.275       .  A
O3589     Ni3593   1.891       .  S
O3589     Ni3611   1.907       .  S
O3589     Ni3605   1.912       .  S
O3589      H3612   0.966       .  S
C3590      O3607   1.275       .  A
C3590      O3599   1.272       .  A
C3590      C4576   1.437       .  S
O3591     Ni3610   1.905       .  S
O3591      C3597   1.259       .  A
O3592     Ni3610   1.898       .  S
O3592      C3594   1.263       .  A
Ni3593     O3596   1.940       .  S
Ni3593     O3598   1.905       .  S
C3594      O3604   1.270       .  A
C3594      C4591   1.437       .  S
O3595     Ni3611   1.940       .  S
O3595      C3601   1.283       .  A
O3596      C3601   1.283       .  A
C3597      C4570   1.440       .  S
O3598      C3600   1.268       .  A
C3600      O3606   1.282       .  A
C3600      C4593   1.452       .  S
C3601      C4573   1.451       .  S
H3602      O3603   0.967       .  S
O3603     Ni3611   1.925       .  S
O3603     Ni3605   1.906       .  S
O3603     Ni3610   1.913       .  S
O3604     Ni3605   1.938       .  S
Ni3605     O3609   1.899       .  S
O3606     Ni3611   1.956       .  S
C3608      O3609   1.265       .  A
C3608      C4567   1.451       .  S
O3613     Ni3619   1.906       .  S
O3613      C3634   1.260       .  A
O3614     Ni3637   1.894       .  S
O3614      C3623   1.262       .  A
O3615     Ni3619   1.911       .  S
O3615     Ni3637   1.904       .  S
O3615     Ni3631   1.921       .  S
O3615      H3638   0.967       .  S
C3616      O3633   1.282       .  A
C3616      O3625   1.284       .  A
O3617     Ni3636   1.961       .  S
O3617      C3623   1.278       .  A
O3618     Ni3636   1.897       .  S
O3618      C3620   1.266       .  A
Ni3619     O3622   1.923       .  S
Ni3619     O3624   1.894       .  S
C3620      O3630   1.280       .  A
C3620      C4564   1.442       .  S
O3621     Ni3637   1.920       .  S
O3621      C3627   1.274       .  A
O3622      C3627   1.274       .  A
C3623      C4556   1.448       .  S
O3624      C3626   1.262       .  A
O3625     Ni3636   1.941       .  S
C3626      O3632   1.269       .  A
C3626      C4565   1.432       .  S
C3627      C4562   1.436       .  S
H3628      O3629   0.966       .  S
O3629     Ni3637   1.913       .  S
O3629     Ni3631   1.909       .  S
O3629     Ni3636   1.894       .  S
O3630     Ni3631   1.950       .  S
Ni3631     O3635   1.936       .  S
Ni3631     O3633   1.938       .  S
O3632     Ni3637   1.936       .  S
C3634      O3635   1.275       .  A
C3634      C4558   1.438       .  S
O3639     Ni3645   1.959       .  S
O3639      C3660   1.277       .  A
O3640     Ni3663   1.936       .  S
O3640      C3649   1.275       .  A
O3641     Ni3645   1.892       .  S
O3641     Ni3663   1.907       .  S
O3641     Ni3657   1.907       .  S
O3641      H3664   0.966       .  S
C3642      O3659   1.275       .  A
C3642      O3651   1.274       .  A
C3642      C4554   1.440       .  S
O3643     Ni3662   1.905       .  S
O3643      C3649   1.260       .  A
O3644     Ni3662   1.896       .  S
O3644      C3646   1.263       .  A
Ni3645     O3648   1.935       .  S
Ni3645     O3650   1.899       .  S
C3646      O3656   1.270       .  A
C3646      C4547   1.436       .  S
O3647     Ni3663   1.938       .  S
O3647      C3653   1.283       .  A
O3648      C3653   1.283       .  A
C3649      C4557   1.439       .  S
O3650      C3652   1.266       .  A
C3652      O3658   1.279       .  A
C3652      C4550   1.445       .  S
C3653      C4551   1.447       .  S
H3654      O3655   0.967       .  S
O3655     Ni3663   1.921       .  S
O3655     Ni3657   1.906       .  S
O3655     Ni3662   1.910       .  S
O3656     Ni3657   1.939       .  S
Ni3657     O3661   1.895       .  S
O3658     Ni3663   1.952       .  S
C3660      O3661   1.263       .  A
C3660      C4595   1.447       .  S
O3665     Ni3671   1.895       .  S
O3665      C3686   1.262       .  A
O3666     Ni3689   1.891       .  S
O3666      C3675   1.261       .  A
O3667     Ni3671   1.917       .  S
O3667     Ni3689   1.910       .  S
O3667     Ni3683   1.937       .  S
O3667      H3690   0.967       .  S
C3668      O3685   1.282       .  A
C3668      O3677   1.283       .  A
C3668      C4544   1.453       .  S
O3669     Ni3688   1.962       .  S
O3669      C3675   1.277       .  A
O3670     Ni3688   1.901       .  S
O3670      C3672   1.267       .  A
Ni3671     O3674   1.918       .  S
Ni3671     O3676   1.899       .  S
C3672      O3682   1.280       .  A
O3673     Ni3689   1.915       .  S
O3673      C3679   1.265       .  A
O3674      C3679   1.265       .  A
C3675      C4539   1.448       .  S
O3676      C3678   1.267       .  A
O3677     Ni3688   1.940       .  S
C3678      O3684   1.278       .  A
C3678      C4561   1.436       .  S
C3679      C4542   1.432       .  S
H3680      O3681   0.966       .  S
O3681     Ni3689   1.900       .  S
O3681     Ni3683   1.903       .  S
O3681     Ni3688   1.899       .  S
O3682     Ni3683   1.953       .  S
Ni3683     O3687   1.926       .  S
Ni3683     O3685   1.939       .  S
O3684     Ni3689   1.958       .  S
C3686      O3687   1.276       .  A
C3686      C4545   1.429       .  S
O3691     Ni3697   1.962       .  S
O3691      C3712   1.278       .  A
O3692     Ni3715   1.926       .  S
O3692      C3701   1.274       .  A
O3693     Ni3697   1.896       .  S
O3693     Ni3715   1.906       .  S
O3693     Ni3709   1.911       .  S
O3693      H3716   0.966       .  S
C3694      O3711   1.272       .  A
C3694      O3703   1.271       .  A
C3694      C4537   1.437       .  S
O3695     Ni3714   1.905       .  S
O3695      C3701   1.260       .  A
O3696     Ni3714   1.891       .  S
O3696      C3698   1.262       .  A
Ni3697     O3700   1.943       .  S
Ni3697     O3702   1.899       .  S
C3698      O3708   1.270       .  A
O3699     Ni3715   1.940       .  S
O3699      C3705   1.282       .  A
O3700      C3705   1.284       .  A
C3701      C4546   1.430       .  S
O3702      C3704   1.266       .  A
O3703     Ni3714   1.921       .  S
C3704      O3710   1.279       .  A
C3704      C4552   1.443       .  S
C3705      C4535   1.455       .  S
H3706      O3707   0.967       .  S
O3707     Ni3715   1.923       .  S
O3707     Ni3709   1.908       .  S
O3707     Ni3714   1.915       .  S
O3708     Ni3709   1.938       .  S
Ni3709     O3713   1.893       .  S
Ni3709     O3711   1.919       .  S
O3710     Ni3715   1.949       .  S
C3712      O3713   1.262       .  A
C3712      C4577   1.448       .  S
O3717     Ni3723   1.908       .  S
O3717      C3738   1.261       .  A
O3718     Ni3741   1.891       .  S
O3718      C3727   1.261       .  A
O3719     Ni3723   1.911       .  S
O3719     Ni3741   1.907       .  S
O3719     Ni3735   1.922       .  S
O3719      H3742   0.966       .  S
C3720      O3737   1.283       .  A
C3720      O3729   1.283       .  A
O3721     Ni3740   1.962       .  S
O3721      C3727   1.278       .  A
O3722     Ni3740   1.899       .  S
O3722      C3724   1.267       .  A
Ni3723     O3726   1.916       .  S
Ni3723     O3728   1.899       .  S
C3724      O3734   1.284       .  A
O3725     Ni3741   1.918       .  S
O3725      C3731   1.273       .  A
O3726      C3731   1.273       .  A
C3727      C4532   1.447       .  S
O3728      C3730   1.264       .  A
O3729     Ni3740   1.939       .  S
C3730      O3736   1.267       .  A
C3730      C4541   1.434       .  S
C3731      C4566   1.431       .  S
H3732      O3733   0.966       .  S
O3733     Ni3741   1.908       .  S
O3733     Ni3735   1.907       .  S
O3733     Ni3740   1.891       .  S
O3734     Ni3735   1.963       .  S
Ni3735     O3739   1.943       .  S
Ni3735     O3737   1.939       .  S
O3736     Ni3741   1.933       .  S
C3738      O3739   1.279       .  A
C3738      C4533   1.445       .  S
O3743     Ni3749   1.960       .  S
O3743      C3764   1.277       .  A
O3744     Ni3767   1.940       .  S
O3744      C3753   1.280       .  A
O3745     Ni3749   1.896       .  S
O3745     Ni3767   1.906       .  S
O3745     Ni3761   1.904       .  S
O3745      H3768   0.965       .  S
C3746      O3763   1.266       .  A
C3746      O3755   1.267       .  A
C3746      C4548   1.434       .  S
O3747     Ni3766   1.904       .  S
O3747      C3753   1.263       .  A
O3748     Ni3766   1.900       .  S
O3748      C3750   1.266       .  A
Ni3749     O3752   1.936       .  S
Ni3749     O3754   1.900       .  S
C3750      O3760   1.275       .  A
O3751     Ni3767   1.939       .  S
O3751      C3757   1.282       .  A
O3752      C3757   1.282       .  A
C3753      C4534   1.443       .  S
O3754      C3756   1.267       .  A
C3756      O3762   1.284       .  A
C3756      C4536   1.451       .  S
C3757      C4549   1.448       .  S
H3758      O3759   0.966       .  S
O3759     Ni3767   1.930       .  S
O3759     Ni3761   1.915       .  S
O3759     Ni3766   1.916       .  S
O3760     Ni3761   1.953       .  S
Ni3761     O3765   1.897       .  S
O3762     Ni3767   1.962       .  S
C3764      O3765   1.263       .  A
C3764      C4568   1.449       .  S
O3769     Ni3775   1.911       .  S
O3769      C3790   1.264       .  A
O3770     Ni3793   1.893       .  S
O3770      C3779   1.262       .  A
O3771     Ni3775   1.913       .  S
O3771     Ni3793   1.910       .  S
O3771     Ni3787   1.922       .  S
O3771      H3794   0.966       .  S
C3772      O3789   1.282       .  A
C3772      O3781   1.283       .  A
C3772      C4526   1.452       .  S
O3773     Ni3792   1.959       .  S
O3773      C3779   1.277       .  A
O3774     Ni3792   1.900       .  S
O3774      C3776   1.266       .  A
Ni3775     O3778   1.921       .  S
Ni3775     O3780   1.902       .  S
C3776      O3786   1.281       .  A
C3776      C4521   1.448       .  S
O3777     Ni3793   1.915       .  S
O3777      C3783   1.270       .  A
O3778      C3783   1.270       .  A
C3779      C4571   1.445       .  S
O3780      C3782   1.265       .  A
O3781     Ni3792   1.938       .  S
C3782      O3788   1.273       .  A
C3782      C4523   1.440       .  S
C3783      C4528   1.433       .  S
H3784      O3785   0.966       .  S
O3785     Ni3793   1.907       .  S
O3785     Ni3787   1.905       .  S
O3785     Ni3792   1.896       .  S
O3786     Ni3787   1.955       .  S
Ni3787     O3791   1.929       .  S
Ni3787     O3789   1.940       .  S
O3788     Ni3793   1.949       .  S
C3790      O3791   1.276       .  A
C3790      C4529   1.437       .  S
O3795     Ni3801   1.958       .  S
O3795      C3816   1.277       .  A
O3796     Ni3819   1.933       .  S
O3796      C3805   1.276       .  A
O3797     Ni3801   1.894       .  S
O3797     Ni3819   1.907       .  S
O3797     Ni3813   1.910       .  S
O3797      H3820   0.966       .  S
C3798      O3815   1.273       .  A
C3798      O3807   1.273       .  A
C3798      C4517   1.435       .  S
O3799     Ni3818   1.909       .  S
O3799      C3805   1.262       .  A
O3800     Ni3818   1.900       .  S
O3800      C3802   1.264       .  A
Ni3801     O3804   1.937       .  S
Ni3801     O3806   1.898       .  S
C3802      O3812   1.270       .  A
C3802      C4514   1.438       .  S
O3803     Ni3819   1.938       .  S
O3803      C3809   1.282       .  A
O3804      C3809   1.283       .  A
C3805      C4530   1.439       .  S
O3806      C3808   1.266       .  A
O3807     Ni3818   1.921       .  S
C3808      O3814   1.282       .  A
C3808      C4511   1.449       .  S
C3809      C4515   1.449       .  S
H3810      O3811   0.966       .  S
O3811     Ni3819   1.922       .  S
O3811     Ni3813   1.907       .  S
O3811     Ni3818   1.913       .  S
O3812     Ni3813   1.941       .  S
Ni3813     O3817   1.893       .  S
Ni3813     O3815   1.919       .  S
O3814     Ni3819   1.959       .  S
C3816      O3817   1.262       .  A
C3816      C4519   1.445       .  S
O3821     Ni3827   1.907       .  S
O3822     Ni3845   1.891       .  S
O3822      C3831   1.263       .  A
O3823     Ni3827   1.914       .  S
O3823     Ni3845   1.906       .  S
O3823      H3846   0.967       .  S
C3824      O3841   1.283       .  A
C3824      O3833   1.284       .  A
C3824      C4507   1.454       .  S
O3825     Ni3844   1.963       .  S
O3826     Ni3844   1.897       .  S
O3826      C3828   1.266       .  A
Ni3827     O3830   1.919       .  S
Ni3827     O3832   1.899       .  S
C3828      O3838   1.282       .  A
C3828      C4525   1.447       .  S
O3829     Ni3845   1.932       .  S
O3829      C3835   1.277       .  A
O3830      C3835   1.273       .  A
C3831      C4607   1.442       .  S
O3832      C3834   1.264       .  A
O3833     Ni3844   1.942       .  S
C3834      O3840   1.268       .  A
C3834      C4527   1.435       .  S
C3835      C4509   1.442       .  S
H3836      O3837   0.966       .  S
O3837     Ni3839   1.906       .  S
O3837     Ni3844   1.895       .  S
O3838     Ni3839   1.957       .  S
Ni3839     O3843   1.932       .  S
Ni3839     O3841   1.941       .  S
O3840     Ni3845   1.933       .  S
C3842      O3843   1.276   1_545  A
C3842      C4505   1.437   1_545  S
O3847     Ni3853   1.959       .  S
O3848     Ni3871   1.935       .  S
O3848      C3857   1.275       .  A
O3849     Ni3853   1.893       .  S
O3849     Ni3871   1.907       .  S
O3849      H3872   0.966       .  S
C3850      O3867   1.266       .  A
C3850      O3859   1.267       .  A
C3850      C4499   1.434       .  S
O3851     Ni3870   1.901       .  S
O3852     Ni3870   1.900       .  S
O3852      C3854   1.267       .  A
Ni3853     O3856   1.937       .  S
Ni3853     O3858   1.899       .  S
C3854      O3864   1.278       .  A
C3854      C4518   1.436       .  S
O3855     Ni3871   1.937       .  S
O3855      C3861   1.282       .  A
O3856      C3861   1.283       .  A
C3857      C4506   1.439       .  S
O3858      C3860   1.267       .  A
O3859     Ni3870   1.924       .  S
C3860      O3866   1.280       .  A
C3860      C4516   1.446       .  S
C3861      C4502   1.448       .  S
H3862      O3863   0.967       .  S
O3863     Ni3865   1.911       .  S
O3863     Ni3870   1.916       .  S
O3864     Ni3865   1.957       .  S
Ni3865     O3869   1.891       .  S
Ni3865     O3867   1.915       .  S
O3866     Ni3871   1.953       .  S
C3868      O3869   1.262       .  A
C3868      C4504   1.445       .  S
O3873     Ni3879   1.895       .  S
O3874     Ni3897   1.892       .  S
O3874      C3883   1.263       .  A
O3875     Ni3879   1.917       .  S
O3875     Ni3897   1.911       .  S
O3875      H3898   0.967       .  S
C3876      O3893   1.282       .  A
C3876      O3885   1.282       .  A
C3876      C4522   1.452       .  S
O3877     Ni3896   1.960       .  S
O3878     Ni3896   1.896       .  S
O3878      C3880   1.266       .  A
Ni3879     O3882   1.918       .  S
Ni3879     O3884   1.900       .  S
C3880      O3890   1.283       .  A
C3880      C4508   1.450       .  S
O3881     Ni3897   1.923       .  S
O3881      C3887   1.268       .  A
O3882      C3887   1.265       .  A
C3883      C4585   1.448       .  S
O3884      C3886   1.268       .  A
O3885     Ni3896   1.938       .  S
C3886      O3892   1.280       .  A
C3886      C4510   1.443       .  S
C3887      C4524   1.438       .  S
H3888      O3889   0.966       .  S
O3889     Ni3891   1.905       .  S
O3889     Ni3896   1.899       .  S
O3890     Ni3891   1.962       .  S
Ni3891     O3895   1.932       .  S
Ni3891     O3893   1.939       .  S
O3892     Ni3897   1.963       .  S
C3894      O3895   1.278       .  A
C3894      C4497   1.435       .  S
O3899     Ni3905   1.961       .  S
O3900     Ni3923   1.927       .  S
O3900      C3909   1.274   1_655  A
O3901     Ni3905   1.896       .  S
O3901     Ni3923   1.906       .  S
O3901      H3924   0.966       .  S
C3902      O3919   1.274       .  A
C3902      O3911   1.271       .  A
C3902      C4513   1.436       .  S
O3903     Ni3922   1.906       .  S
O3904     Ni3922   1.898       .  S
O3904      C3906   1.264       .  A
Ni3905     O3908   1.942       .  S
Ni3905     O3910   1.899       .  S
C3906      O3916   1.269       .  A
C3906      C4500   1.435       .  S
O3907     Ni3923   1.939       .  S
O3907      C3913   1.281       .  A
O3908      C3913   1.283       .  A
C3909      C4498   1.429       .  S
O3910      C3912   1.267       .  A
O3911     Ni3922   1.915       .  S
C3912      O3918   1.279       .  A
C3912      C4501   1.444       .  S
C3913      C4512   1.453       .  S
H3914      O3915   0.967       .  S
O3915     Ni3917   1.908       .  S
O3915     Ni3922   1.913       .  S
O3916     Ni3917   1.937       .  S
Ni3917     O3921   1.890       .  S
Ni3917     O3919   1.924       .  S
O3918     Ni3923   1.950       .  S
C3920      O3921   1.261       .  A
C3920      C4495   1.443       .  S
O3925     Ni3931   1.904       .  S
O3925      C3946   1.260       .  A
O3926     Ni3949   1.891       .  S
O3926      C3935   1.263       .  A
O3927     Ni3931   1.910       .  S
O3927     Ni3949   1.902       .  S
O3927     Ni3943   1.926       .  S
O3927      H3950   0.966       .  S
C3928      O3945   1.283       .  A
C3928      O3937   1.284       .  A
C3928      C4489   1.455       .  S
O3929     Ni3948   1.958       .  S
O3929      C3935   1.277       .  A
O3930     Ni3948   1.897       .  S
O3930      C3932   1.266       .  A
Ni3931     O3934   1.917       .  S
Ni3931     O3936   1.896       .  S
C3932      O3942   1.280       .  A
C3932      C4485   1.443       .  S
O3933     Ni3949   1.928       .  S
O3933      C3939   1.277       .  A
O3934      C3939   1.273       .  A
C3935      C4493   1.443       .  S
O3936      C3938   1.263       .  A
O3937     Ni3948   1.943       .  S
C3938      O3944   1.268       .  A
C3939      C4487   1.437       .  S
H3940      O3941   0.966       .  S
O3941     Ni3949   1.914       .  S
O3941     Ni3943   1.903       .  S
O3941     Ni3948   1.891       .  S
O3942     Ni3943   1.952       .  S
Ni3943     O3947   1.931       .  S
Ni3943     O3945   1.941       .  S
O3944     Ni3949   1.932       .  S
C3946      O3947   1.274       .  A
C3946      C4491   1.435       .  S
O3951     Ni3957   1.956       .  S
O3951      C3972   1.276       .  A
O3952     Ni3975   1.930       .  S
O3952      C3961   1.275       .  A
O3953     Ni3957   1.893       .  S
O3953     Ni3975   1.903       .  S
O3953     Ni3969   1.908       .  S
O3953      H3976   0.966       .  S
C3954      O3971   1.272       .  A
C3954      O3963   1.273       .  A
C3954      C4482   1.439       .  S
O3955     Ni3974   1.909       .  S
O3955      C3961   1.262       .  A
O3956     Ni3974   1.896       .  S
O3956      C3958   1.263       .  A
Ni3957     O3960   1.936       .  S
Ni3957     O3962   1.898       .  S
C3958      O3968   1.271       .  A
C3958      C4478   1.437       .  S
O3959     Ni3975   1.943       .  S
O3959      C3965   1.284       .  A
O3960      C3965   1.283       .  A
C3961      C4492   1.435       .  S
O3962      C3964   1.265       .  A
O3963     Ni3974   1.925       .  S
C3964      O3970   1.280       .  A
C3965      C4480   1.450       .  S
H3966      O3967   0.966       .  S
O3967     Ni3975   1.926       .  S
O3967     Ni3969   1.907       .  S
O3967     Ni3974   1.913       .  S
O3968     Ni3969   1.942       .  S
Ni3969     O3973   1.891       .  S
Ni3969     O3971   1.920       .  S
O3970     Ni3975   1.954       .  S
C3972      O3973   1.262       .  A
C3972      C4496   1.444       .  S
O3977     Ni3983   1.894       .  S
O3977      C3998   1.262       .  A
O3978     Ni4001   1.890       .  S
O3978      C3987   1.261       .  A
O3979     Ni3983   1.919       .  S
O3979     Ni4001   1.912       .  S
O3979     Ni3995   1.939       .  S
O3979      H4002   0.967       .  S
C3980      O3997   1.284       .  A
C3980      O3989   1.283       .  A
C3980      C4467   1.457       .  S
O3981     Ni4000   1.960       .  S
O3981      C3987   1.277       .  A
O3982     Ni4000   1.898       .  S
O3982      C3984   1.266       .  A
Ni3983     O3988   1.899       .  S
C3984      O3994   1.283       .  A
C3984      C4490   1.451       .  S
O3985      C3991   1.268       .  A
O3986      C3991   1.265       .  A
C3987      C4473   1.445       .  S
O3988      C3990   1.267       .  A
O3989     Ni4000   1.940       .  S
C3990      O3996   1.277       .  A
C3991      C4469   1.437       .  S
H3992      O3993   0.966       .  S
O3993     Ni4001   1.901       .  S
O3993     Ni3995   1.899       .  S
O3993     Ni4000   1.895       .  S
O3994     Ni3995   1.962       .  S
Ni3995     O3999   1.926       .  S
Ni3995     O3997   1.945       .  S
O3996     Ni4001   1.956       .  S
C3998      O3999   1.277       .  A
C3998      C4472   1.427       .  S
O4003     Ni4009   1.959       .  S
O4003      C4024   1.277       .  A
O4004     Ni4027   1.923       .  S
O4004      C4013   1.276       .  A
O4005     Ni4009   1.897       .  S
O4005     Ni4027   1.901       .  S
O4005     Ni4021   1.905       .  S
O4005      H4028   0.966       .  S
C4006      O4023   1.269       .  A
C4006      O4015   1.268       .  A
C4006      C4466   1.435       .  S
O4007     Ni4026   1.899       .  S
O4007      C4013   1.262       .  A
O4008     Ni4026   1.897       .  S
O4008      C4010   1.265       .  A
Ni4009     O4012   1.941       .  S
Ni4009     O4014   1.900       .  S
C4010      O4020   1.277       .  A
C4010      C4481   1.439       .  S
O4011     Ni4027   1.942       .  S
O4011      C4017   1.282       .  A
O4012      C4017   1.283       .  A
C4013      C4471   1.427       .  S
O4014      C4016   1.266       .  A
O4015     Ni4026   1.920       .  S
C4016      O4022   1.281       .  A
H4018      O4019   0.967       .  S
O4019     Ni4027   1.931       .  S
O4019     Ni4021   1.909       .  S
O4019     Ni4026   1.915       .  S
O4020     Ni4021   1.959       .  S
Ni4021     O4025   1.891       .  S
Ni4021     O4023   1.918       .  S
O4022     Ni4027   1.957       .  S
C4024      O4025   1.262       .  A
C4024      C4503   1.445       .  S
O4029     Ni4035   1.909       .  S
O4029      C4050   1.261       .  A
O4030     Ni4053   1.894       .  S
O4030      C4039   1.263       .  A
O4031     Ni4035   1.913       .  S
O4031     Ni4053   1.906       .  S
O4031     Ni4047   1.921       .  S
O4031      H4054   0.967       .  S
C4032      O4049   1.281       .  A
C4032      O4041   1.283       .  A
C4032      C4486   1.448       .  S
O4033     Ni4052   1.961       .  S
O4033      C4039   1.278       .  A
O4034     Ni4052   1.901       .  S
O4034      C4036   1.267       .  A
Ni4035     O4040   1.901       .  S
C4036      O4046   1.284       .  A
C4036      C4468   1.453       .  S
O4037      C4043   1.273       .  A
O4038      C4043   1.273       .  A
C4039      C4459   1.447       .  S
O4040      C4042   1.264       .  A
O4041     Ni4052   1.939       .  S
C4042      O4048   1.269       .  A
C4042      C4470   1.439       .  S
C4043      C4484   1.434       .  S
H4044      O4045   0.966       .  S
O4045     Ni4053   1.910       .  S
O4045     Ni4047   1.908       .  S
O4045     Ni4052   1.893       .  S
O4046     Ni4047   1.964       .  S
Ni4047     O4051   1.938       .  S
Ni4047     O4049   1.934       .  S
O4048     Ni4053   1.939       .  S
C4050      O4051   1.276       .  A
C4050      C4462   1.442       .  S
O4055     Ni4061   1.956       .  S
O4055      C4076   1.276       .  A
O4056     Ni4079   1.937       .  S
O4056      C4065   1.277       .  A
O4057     Ni4061   1.895       .  S
O4057     Ni4079   1.909       .  S
O4057     Ni4073   1.909       .  S
O4057      H4080   0.966       .  S
C4058      O4075   1.273       .  A
C4058      O4067   1.272       .  A
C4058      C4477   1.435       .  S
O4059     Ni4078   1.910       .  S
O4059      C4065   1.262       .  A
O4060     Ni4078   1.899       .  S
O4060      C4062   1.264       .  A
Ni4061     O4064   1.934       .  S
Ni4061     O4066   1.897       .  S
C4062      O4072   1.270       .  A
C4062      C4465   1.437       .  S
O4063     Ni4079   1.938       .  S
O4063      C4069   1.282       .  A
O4064      C4069   1.282       .  A
C4065      C4461   1.442       .  S
O4066      C4068   1.266       .  A
O4067     Ni4078   1.920       .  S
C4068      O4074   1.281       .  A
C4068      C4463   1.446       .  S
H4070      O4071   0.967       .  S
O4071     Ni4079   1.921       .  S
O4071     Ni4073   1.909       .  S
O4071     Ni4078   1.912       .  S
O4072     Ni4073   1.939       .  S
Ni4073     O4077   1.894       .  S
Ni4073     O4075   1.919       .  S
O4074     Ni4079   1.955       .  S
C4076      O4077   1.262       .  A
C4076      C4520   1.445       .  S
O4081     Ni4087   1.906       .  S
O4081      C4102   1.261       .  A
O4082     Ni4105   1.891       .  S
O4082      C4091   1.262       .  A
O4083     Ni4087   1.909       .  S
O4083     Ni4105   1.902       .  S
O4083     Ni4099   1.923       .  S
O4083      H4106   0.967       .  S
C4084      O4101   1.283       .  A
C4084      O4093   1.284       .  A
C4084      C4452   1.452       .  S
O4085     Ni4104   1.961       .  S
O4085      C4091   1.278       .  A
O4086     Ni4104   1.901       .  S
O4086      C4088   1.267       .  A
Ni4087     O4092   1.898       .  S
C4088      O4098   1.279       .  A
C4088      C4455   1.445       .  S
O4089      C4095   1.273       .  A
O4090      C4095   1.272       .  A
C4091      C4474   1.446       .  S
O4092      C4094   1.264       .  A
O4093     Ni4104   1.941       .  S
C4094      O4100   1.269       .  A
C4094      C4454   1.435       .  S
C4095      C4450   1.436       .  S
H4096      O4097   0.966       .  S
O4097     Ni4105   1.910       .  S
O4097     Ni4099   1.903       .  S
O4097     Ni4104   1.892       .  S
O4098     Ni4099   1.950       .  S
Ni4099     O4103   1.929       .  S
Ni4099     O4101   1.940       .  S
O4100     Ni4105   1.936       .  S
C4102      O4103   1.273       .  A
C4102      C4458   1.434       .  S
O4107     Ni4113   1.962       .  S
O4107      C4128   1.278       .  A
O4108     Ni4131   1.930       .  S
O4108      C4117   1.274       .  A
O4109     Ni4113   1.893       .  S
O4109     Ni4131   1.904       .  S
O4109     Ni4125   1.911       .  S
O4109      H4132   0.966       .  S
C4110      O4127   1.274       .  A
C4110      O4119   1.273       .  A
C4110      C4445   1.438       .  S
O4111     Ni4130   1.907       .  S
O4111      C4117   1.260       .  A
O4112     Ni4130   1.894       .  S
O4112      C4114   1.263       .  A
Ni4113     O4116   1.942       .  S
Ni4113     O4118   1.899       .  S
C4114      O4124   1.268       .  A
C4114      C4441   1.430       .  S
O4115     Ni4131   1.943       .  S
O4115      C4121   1.283       .  A
O4116      C4121   1.284       .  A
C4117      C4457   1.434       .  S
O4118      C4120   1.266       .  A
O4119     Ni4130   1.920       .  S
C4120      O4126   1.280       .  A
C4120      C4439   1.446       .  S
H4122      O4123   0.967       .  S
O4123     Ni4131   1.927       .  S
O4123     Ni4125   1.906       .  S
O4123     Ni4130   1.913       .  S
O4124     Ni4125   1.931       .  S
Ni4125     O4129   1.889       .  S
Ni4125     O4127   1.924       .  S
O4126     Ni4131   1.953       .  S
C4128      O4129   1.261       .  A
C4128      C4447   1.446       .  S
O4133     Ni4139   1.898       .  S
O4133      C4154   1.263       .  A
O4134     Ni4157   1.890       .  S
O4134      C4143   1.262       .  A
O4135     Ni4139   1.919       .  S
O4135     Ni4157   1.911       .  S
O4135     Ni4151   1.939       .  S
O4135      H4158   0.967       .  S
C4136      O4153   1.281       .  A
C4136      O4145   1.282       .  A
C4136      C4435   1.453       .  S
O4137     Ni4156   1.956       .  S
O4137      C4143   1.276       .  A
O4138     Ni4156   1.898       .  S
O4138      C4140   1.266       .  A
Ni4139     O4142   1.922       .  S
Ni4139     O4144   1.898       .  S
C4140      O4150   1.281       .  A
C4140      C4451   1.448       .  S
O4141     Ni4157   1.921       .  S
O4141      C4147   1.267       .  A
O4142      C4147   1.266       .  A
C4143      C4494   1.442       .  S
O4144      C4146   1.267       .  A
O4145     Ni4156   1.938       .  S
C4146      O4152   1.278       .  A
C4147      C4437   1.439       .  S
H4148      O4149   0.966       .  S
O4149     Ni4157   1.904       .  S
O4149     Ni4151   1.901       .  S
O4149     Ni4156   1.899       .  S
O4150     Ni4151   1.957       .  S
Ni4151     O4155   1.922       .  S
Ni4151     O4153   1.940       .  S
O4152     Ni4157   1.957       .  S
C4154      O4155   1.275       .  A
C4154      C4433   1.427       .  S
O4159     Ni4165   1.955       .  S
O4159      C4180   1.276       .  A
O4160     Ni4183   1.920       .  S
O4160      C4169   1.275       .  A
O4161     Ni4165   1.897       .  S
O4161     Ni4183   1.899       .  S
O4161     Ni4177   1.903       .  S
O4161      H4184   0.966       .  S
C4162      O4179   1.268       .  A
C4162      O4171   1.266       .  A
C4162      C4430   1.437       .  S
O4163     Ni4182   1.899       .  S
O4163      C4169   1.263       .  A
O4164     Ni4182   1.899       .  S
O4164      C4166   1.266       .  A
Ni4165     O4168   1.936       .  S
Ni4165     O4170   1.899       .  S
C4166      O4176   1.277       .  A
C4166      C4446   1.439       .  S
O4167     Ni4183   1.939       .  S
O4167      C4173   1.282       .  A
O4168      C4173   1.282       .  A
C4169      C4434   1.427       .  S
O4171     Ni4182   1.919       .  S
C4172      C4444   1.447       .  S
C4173      C4427   1.450       .  S
H4174      O4175   0.967       .  S
O4175     Ni4183   1.935       .  S
O4175     Ni4177   1.912       .  S
O4175     Ni4182   1.917       .  S
O4176     Ni4177   1.958       .  S
Ni4177     O4181   1.890       .  S
Ni4177     O4179   1.921       .  S
O4178     Ni4183   1.956       .  S
C4180      O4181   1.262       .  A
C4180      C4431   1.441       .  S
O4185     Ni4191   1.907       .  S
O4185      C4206   1.261       .  A
O4186     Ni4209   1.894       .  S
O4186      C4195   1.263       .  A
O4187     Ni4191   1.911       .  S
O4187     Ni4209   1.908       .  S
O4187     Ni4203   1.922       .  S
O4187      H4210   0.966       .  S
C4188      O4205   1.283       .  A
C4188      O4197   1.282       .  A
C4188      C4456   1.448       .  S
O4189     Ni4208   1.958       .  S
O4189      C4195   1.277       .  A
O4190     Ni4208   1.900       .  S
O4190      C4192   1.267       .  A
Ni4191     O4196   1.896       .  S
C4192      O4202   1.282       .  A
C4192      C4436   1.449       .  S
O4193      C4199   1.272       .  A
O4194      C4199   1.272       .  A
C4195      C4460   1.446       .  S
O4196      C4198   1.263       .  A
O4197     Ni4208   1.934       .  S
C4198      O4204   1.270       .  A
C4199      C4453   1.433       .  S
H4200      O4201   0.966       .  S
O4201     Ni4209   1.907       .  S
O4201     Ni4203   1.907       .  S
O4201     Ni4208   1.892       .  S
O4202     Ni4203   1.958       .  S
Ni4203     O4207   1.941       .  S
Ni4203     O4205   1.941       .  S
O4204     Ni4209   1.940       .  S
C4206      O4207   1.278       .  A
C4206      C4425   1.442       .  S
O4211     Ni4217   1.960       .  S
O4211      C4232   1.276       .  A
O4212     Ni4235   1.940       .  S
O4212      C4221   1.278       .  A
O4213     Ni4217   1.893       .  S
O4213     Ni4235   1.909       .  S
O4213     Ni4229   1.904       .  S
O4213      H4236   0.966       .  S
C4214      O4231   1.271       .  A
C4214      O4223   1.273       .  A
C4214      C4442   1.428       .  S
O4215     Ni4234   1.908       .  S
O4215      C4221   1.261       .  A
O4216     Ni4234   1.899       .  S
O4216      C4218   1.263       .  A
Ni4217     O4220   1.937       .  S
Ni4217     O4222   1.896       .  S
C4218      O4228   1.270       .  A
C4218      C4429   1.439       .  S
O4219     Ni4235   1.934       .  S
O4219      C4225   1.281       .  A
O4220      C4225   1.283       .  A
C4221      C4426   1.442       .  S
O4222      C4224   1.265   1_655  A
O4223     Ni4234   1.919       .  S
C4224      O4230   1.283   1_455  A
H4226      O4227   0.966       .  S
O4227     Ni4235   1.917       .  S
O4227     Ni4229   1.908       .  S
O4227     Ni4234   1.912       .  S
O4228     Ni4229   1.942       .  S
Ni4229     O4233   1.893       .  S
Ni4229     O4231   1.911       .  S
O4230     Ni4235   1.961       .  S
C4232      O4233   1.261       .  A
C4232      C4423   1.446       .  S
O4237     Ni4243   1.959       .  S
O4237      C4258   1.276       .  A
O4238     Ni4261   1.928       .  S
O4238      C4247   1.277       .  A
O4239     Ni4243   1.901       .  S
O4239     Ni4261   1.904       .  S
O4239     Ni4255   1.905       .  S
O4239      H4262   0.966       .  S
C4240      O4257   1.267       .  A
C4240      O4249   1.264       .  A
C4240      C4413   1.434       .  S
O4241     Ni4260   1.889       .  S
O4241      C4247   1.260       .  A
O4242     Ni4260   1.898       .  S
O4242      C4244   1.267       .  A
Ni4243     O4246   1.943       .  S
Ni4243     O4248   1.898       .  S
C4244      O4254   1.278       .  A
C4244      C4418   1.438       .  S
O4245     Ni4261   1.940       .  S
O4245      C4251   1.282       .  A
O4246      C4251   1.283       .  A
C4247      C4422   1.427       .  S
O4248      C4250   1.266       .  A
O4249     Ni4260   1.913       .  S
C4250      O4256   1.281       .  A
C4250      C4420   1.448       .  S
C4251      C4415   1.456       .  S
H4252      O4253   0.967       .  S
O4253     Ni4261   1.939       .  S
O4253     Ni4255   1.912       .  S
O4253     Ni4260   1.919       .  S
O4254     Ni4255   1.956       .  S
Ni4255     O4259   1.892       .  S
Ni4255     O4257   1.920       .  S
O4256     Ni4261   1.956       .  S
C4258      O4259   1.262       .  A
C4258      C4448   1.446       .  S
O4263     Ni4269   1.894       .  S
O4263      C4284   1.261       .  A
O4264     Ni4287   1.892       .  S
O4264      C4273   1.262       .  A
O4265     Ni4269   1.915       .  S
O4265     Ni4287   1.910       .  S
O4265     Ni4281   1.932       .  S
O4265      H4288   0.967       .  S
C4266      O4283   1.283       .  A
C4266      O4275   1.283       .  A
C4266      C4405   1.454       .  S
O4267     Ni4286   1.961       .  S
O4267      C4273   1.277       .  A
O4268     Ni4286   1.902       .  S
O4268      C4270   1.267       .  A
Ni4269     O4272   1.917       .  S
Ni4269     O4274   1.897       .  S
C4270      O4280   1.279       .  A
C4270      C4410   1.447       .  S
O4271     Ni4287   1.916       .  S
O4271      C4277   1.267       .  A
O4272      C4277   1.266       .  A
C4273      C4555   1.448       .  S
O4274      C4276   1.265       .  A
O4275     Ni4286   1.940       .  S
C4276      O4282   1.277       .  A
C4276      C4411   1.436       .  S
C4277      C4407   1.433       .  S
H4278      O4279   0.966       .  S
O4279     Ni4287   1.904       .  S
O4279     Ni4281   1.903       .  S
O4279     Ni4286   1.898       .  S
O4280     Ni4281   1.951       .  S
Ni4281     O4285   1.926       .  S
Ni4281     O4283   1.943       .  S
O4282     Ni4287   1.956       .  S
C4284      O4285   1.277       .  A
C4284      C4421   1.427       .  S
O4289     Ni4295   1.958       .  S
O4290     Ni4313   1.934       .  S
O4290      C4299   1.277       .  A
O4291     Ni4295   1.890       .  S
O4291     Ni4313   1.905       .  S
O4291      H4314   0.966       .  S
C4292      O4309   1.272       .  A
C4292      O4301   1.272       .  A
C4292      C4399   1.431       .  S
O4293     Ni4312   1.911       .  S
O4294     Ni4312   1.902       .  S
O4294      C4296   1.265       .  A
Ni4295     O4298   1.936       .  S
Ni4295     O4300   1.899       .  S
C4296      O4306   1.269       .  A
C4296      C4414   1.437       .  S
O4297     Ni4313   1.939       .  S
O4297      C4303   1.282       .  A
O4298      C4303   1.282       .  A
C4299      C4404   1.438       .  S
O4300      C4302   1.266       .  A
O4301     Ni4312   1.918       .  S
C4302      O4308   1.284       .  A
C4302      C4416   1.452       .  S
C4303      C4401   1.448       .  S
H4304      O4305   0.967       .  S
O4305     Ni4307   1.909       .  S
O4305     Ni4312   1.911       .  S
O4306     Ni4307   1.937       .  S
Ni4307     O4311   1.893       .  S
Ni4307     O4309   1.915       .  S
O4308     Ni4313   1.963       .  S
C4310      O4311   1.262   1_455  A
C4310      C4424   1.446   1_455  S
O4315     Ni4321   1.908       .  S
O4316     Ni4339   1.893       .  S
O4316      C4325   1.262       .  A
O4317     Ni4321   1.911       .  S
O4317     Ni4339   1.907       .  S
O4317      H4340   0.967       .  S
C4318      O4335   1.282       .  A
C4318      O4327   1.283       .  A
C4318      C4395   1.449       .  S
O4319     Ni4338   1.959       .  S
O4320     Ni4338   1.898       .  S
O4320      C4322   1.266       .  A
Ni4321     O4324   1.917       .  S
Ni4321     O4326   1.899       .  S
C4322      O4332   1.283       .  A
C4322      C4406   1.450       .  S
O4323     Ni4339   1.917       .  S
O4323      C4329   1.273       .  A
O4324      C4329   1.272       .  A
C4325      C4531   1.447       .  S
O4326      C4328   1.264       .  A
O4327     Ni4338   1.938       .  S
C4328      O4334   1.269       .  A
C4328      C4408   1.435       .  S
C4329      C4397   1.431       .  S
H4330      O4331   0.966       .  S
O4331     Ni4333   1.908       .  S
O4331     Ni4338   1.894       .  S
O4332     Ni4333   1.960       .  S
Ni4333     O4337   1.936       .  S
Ni4333     O4335   1.937       .  S
O4334     Ni4339   1.936       .  S
C4336      O4337   1.277   1_455  A
C4336      C4403   1.441   1_455  S
O4341     Ni4347   1.964       .  S
O4342     Ni4365   1.938       .  S
O4342      C4351   1.275       .  A
O4343     Ni4347   1.889       .  S
O4343     Ni4365   1.904       .  S
O4343      H4366   0.966       .  S
C4344      O4361   1.275       .  A
C4344      O4353   1.273       .  A
C4344      C4417   1.437       .  S
O4345     Ni4364   1.906       .  S
O4346     Ni4364   1.896       .  S
O4346      C4348   1.263       .  A
Ni4347     O4350   1.941       .  S
Ni4347     O4352   1.901       .  S
C4348      O4358   1.269       .  A
C4348      C4400   1.433       .  S
O4349     Ni4365   1.941       .  S
O4349      C4355   1.284       .  A
O4350      C4355   1.284       .  A
C4351      C4394   1.438       .  S
O4352      C4354   1.267       .  A
O4353     Ni4364   1.921       .  S
C4354      O4360   1.280       .  A
C4354      C4402   1.445       .  S
C4355      C4419   1.451       .  S
H4356      O4357   0.967       .  S
O4357     Ni4359   1.903       .  S
O4357     Ni4364   1.910       .  S
O4358     Ni4359   1.935       .  S
Ni4359     O4363   1.891       .  S
Ni4359     O4361   1.924       .  S
O4360     Ni4365   1.951       .  S
C4362      O4363   1.262       .  A
C4362      C4432   1.442       .  S
O4367     Ni4373   1.904       .  S
O4368     Ni4391   1.892       .  S
O4368      C4377   1.262       .  A
O4369     Ni4373   1.911       .  S
O4369     Ni4391   1.904       .  S
O4369      H4392   0.967       .  S
C4370      O4387   1.284       .  A
C4370      O4379   1.282       .  A
C4370      C4409   1.449       .  S
O4371     Ni4390   1.955       .  S
O4372     Ni4390   1.898       .  S
O4372      C4374   1.266       .  A
Ni4373     O4376   1.920       .  S
Ni4373     O4378   1.894       .  S
C4374      O4384   1.280       .  A
C4374      C4396   1.445       .  S
O4375     Ni4391   1.920       .  S
O4375      C4381   1.274       .  A
O4376      C4381   1.274       .  A
C4377      C4540   1.448       .  S
O4378      C4380   1.263       .  A
O4379     Ni4390   1.934       .  S
C4380      O4386   1.268       .  A
C4380      C4398   1.432       .  S
C4381      C4412   1.436       .  S
H4382      O4383   0.966       .  S
O4383     Ni4385   1.904       .  S
O4383     Ni4390   1.893       .  S
O4384     Ni4385   1.952       .  S
Ni4385     O4389   1.933       .  S
Ni4385     O4387   1.941       .  S
O4386     Ni4391   1.933       .  S
C4388      O4389   1.275       .  A
C4388      C4393   1.436       .  S
C4395      C4396   1.214       .  T
C4397      C4398   1.204       .  T
C4399      C4400   1.204       .  T
C4401      C4402   1.213       .  T
C4405      C4406   1.217       .  T
C4407      C4408   1.206       .  T
C4409      C4410   1.214       .  T
C4411      C4412   1.207       .  T
C4413      C4414   1.207       .  T
C4415      C4416   1.218       .  T
C4417      C4418   1.208       .  T
C4419      C4420   1.215       .  T
C4421      C4422   1.204   1_556  T
C4423      C4424   1.213       .  T
C4425      C4426   1.212       .  T
C4427      C4428   1.215       .  T
C4429      C4430   1.208       .  T
C4431      C4432   1.210       .  T
C4433      C4434   1.203       .  T
C4435      C4436   1.216       .  T
C4437      C4438   1.209       .  T
C4439      C4440   1.214       .  T
C4441      C4442   1.202       .  T
C4443      C4444   1.214       .  T
C4445      C4446   1.208       .  T
C4447      C4448   1.213       .  T
C4449      C4450   1.207       .  T
C4451      C4452   1.215       .  T
C4453      C4454   1.205       .  T
C4455      C4456   1.213       .  T
C4457      C4458   1.207       .  T
C4461      C4462   1.211       .  T
C4463      C4464   1.214       .  T
C4465      C4466   1.207       .  T
C4467      C4468   1.219       .  T
C4469      C4470   1.208       .  T
C4471      C4472   1.203       .  T
C4475      C4476   1.213       .  T
C4477      C4478   1.207       .  T
C4479      C4480   1.215       .  T
C4481      C4482   1.208       .  T
C4483      C4484   1.206       .  T
C4485      C4486   1.213       .  T
C4487      C4488   1.208       .  T
C4489      C4490   1.217       .  T
C4491      C4492   1.207       .  T
C4493      C4494   1.211       .  T
C4495      C4496   1.211       .  T
C4499      C4500   1.206       .  T
C4501      C4502   1.213       .  T
C4503      C4504   1.212       .  T
C4507      C4508   1.217       .  T
C4509      C4510   1.211       .  T
C4511      C4512   1.216       .  T
C4513      C4514   1.208       .  T
C4515      C4516   1.214       .  T
C4517      C4518   1.206       .  T
C4519      C4520   1.212       .  T
C4521      C4522   1.215       .  T
C4523      C4524   1.209       .  T
C4525      C4526   1.215       .  T
C4527      C4528   1.205       .  T
C4529      C4530   1.209       .  T
C4531      C4532   1.213       .  T
C4533      C4534   1.213       .  T
C4535      C4536   1.217       .  T
C4537      C4538   1.207       .  T
C4539      C4540   1.214       .  T
C4541      C4542   1.205       .  T
C4543      C4544   1.216       .  T
C4545      C4546   1.204       .  T
C4547      C4548   1.206       .  T
C4549      C4550   1.213       .  T
C4551      C4552   1.213       .  T
C4553      C4554   1.209       .  T
C4555      C4556   1.214       .  T
C4557      C4558   1.209       .  T
C4559      C4560   1.213       .  T
C4561      C4562   1.207       .  T
C4563      C4564   1.212       .  T
C4565      C4566   1.204       .  T
C4569      C4570   1.211       .  T
C4571      C4572   1.212       .  T
C4573      C4574   1.215       .  T
C4575      C4576   1.208       .  T
C4577      C4578   1.214       .  T
C4579      C4580   1.216       .  T
C4581      C4582   1.206       .  T
C4583      C4584   1.205       .  T
C4585      C4586   1.214       .  T
C4587      C4588   1.208       .  T
C4589      C4590   1.216       .  T
C4591      C4592   1.207       .  T
C4593      C4594   1.217       .  T
C4597      C4598   1.205       .  T
C4599      C4600   1.212       .  T
C4601      C4602   1.207       .  T
C4603      C4604   1.217       .  T
C4605      C4606   1.209       .  T
C4607      C4608   1.210       .  T
