geometry optimzed in LAMMPS
_audit_creation_date              2020-12-01 
_audit_creation_method            'lammps2cif' 
_symmetry_space_group_name_H-M    'P1' 
_symmetry_Int_Tables_number       1 
_symmetry_cell_setting            triclinic 
loop_ 
_symmetry_equiv_pos_as_xyz 
  x,y,z 
_cell_length_a                    86.40986492 
_cell_length_b                    86.38655615811581 
_cell_length_c                    35.24828779712013 
_cell_angle_alpha                 89.97572837461124 
_cell_angle_beta                  90.05365930717919 
_cell_angle_gamma                 90.01468688205075 
loop_ 
_atom_site_label 
_atom_site_type_symbol 
_atom_site_fract_x 
_atom_site_fract_y 
_atom_site_fract_z 
_atom_site_charge 
O1          O  0.86758794  0.26251906  0.44967584    -0.85800
O2          O  0.84336431  0.24571362  0.42159551    -0.82800
C3          C  0.84969396  0.23676511  0.39762832     0.97700
O4          O  0.85722300  0.22511391  0.40868217    -0.82900
O5          O  0.87694422  0.20772072  0.45209075    -0.85500
C6          C  0.88976039  0.21463097  0.44833480     1.02200
O7          O  0.89160581  0.22793285  0.46230723    -0.78300
O8          O  0.88505554  0.25665202  0.49226192    -0.78500
C9          C  0.88056654  0.26496841  0.46482974     1.02100
O10         O  0.85526006  0.26019082  0.52610324    -0.85800
O11         O  0.83214732  0.24149384  0.49856285    -0.82900
C12         C  0.82538823  0.22990428  0.48455635     0.97700
O13         O  0.83275549  0.22074999  0.46309574    -0.82900
O14         O  0.85411046  0.20597610  0.51025926    -0.85500
C15         C  0.86592632  0.20450396  0.53108358     1.02200
O16         O  0.87749135  0.21337692  0.52717626    -0.78300
O17         O  0.86872502  0.24165737  0.55295661    -0.78500
C18         C  0.86064562  0.25373145  0.55564857     1.02100
Cr19       Cr  0.85047344  0.25112327  0.47453200     1.93700
Cr20       Cr  0.85565009  0.21635150  0.46017506     1.93200
Cr21       Cr  0.87932841  0.23487891  0.50652797     1.39100
O22         O  0.86177290  0.23414238  0.48064488    -1.23500
O23         O  0.63828498  0.26889865  0.54588439    -0.85800
O24         O  0.65299170  0.25487496  0.60598653    -0.82800
C25         C  0.65754261  0.24424102  0.62786096     0.97700
O26         O  0.66042034  0.23081670  0.61495185    -0.82900
O27         O  0.63184861  0.21814368  0.59994399    -0.85500
C28         C  0.61861555  0.21704421  0.58496975     1.02200
O29         O  0.61643677  0.22164376  0.55130151    -0.78300
O30         O  0.61842976  0.25345530  0.55234095    -0.78500
C31         C  0.62417942  0.26684756  0.55408496     1.02100
O32         O  0.66003105  0.25446968  0.49538560    -0.85800
O33         O  0.67662906  0.24363966  0.55671097    -0.82900
C34         C  0.68102078  0.23051788  0.54511270     0.97700
O35         O  0.67129993  0.21968148  0.54176492    -0.82900
O36         O  0.64292337  0.20522148  0.52989385    -0.85500
C37         C  0.63876946  0.20771519  0.49591152     1.02200
O38         O  0.63559794  0.22124011  0.48506501    -0.78300
O39         O  0.63533721  0.25279829  0.48184317    -0.78500
C40         C  0.64908616  0.25585254  0.47192109     1.02100
Cr41       Cr  0.65613667  0.25413914  0.55067597     1.93700
Cr42       Cr  0.65122004  0.21979346  0.56978929     1.93200
Cr43       Cr  0.62778066  0.23726837  0.51983292     1.39100
O44         O  0.64501090  0.23699889  0.54689279    -1.23500
O45         O  0.85314571  0.27204962  0.02638132    -0.85800
O46         O  0.83118187  0.29197805  0.99922049    -0.82800
C47         C  0.82523505  0.30414986  0.98605537     0.97700
O48         O  0.83308886  0.31289934  0.96461494    -0.82900
O49         O  0.85629798  0.32571356  0.00997496    -0.85500
C50         C  0.86863189  0.32639182  0.02922068     1.02200
O51         O  0.87945686  0.31686170  0.02304301    -0.78300
O52         O  0.86816873  0.28978569  0.05160157    -0.78500
C53         C  0.85921014  0.27837132  0.05532400     1.02100
O54         O  0.86448497  0.26823843  0.94929890    -0.85800
O55         O  0.84137855  0.28655772  0.92180543    -0.82900
C56         C  0.84792746  0.29516451  0.89741948     0.97700
O57         O  0.85610776  0.30647824  0.90790000    -0.82900
O58         O  0.87811564  0.32193035  0.94889964    -0.85500
C59         C  0.89024152  0.31390602  0.94408410     1.02200
O60         O  0.89116434  0.30054657  0.95844773    -0.78300
O61         O  0.88243981  0.27277391  0.99150490    -0.78500
C62         C  0.87720441  0.26474162  0.96444437     1.02100
Cr63       Cr  0.84853042  0.28099726  0.97460519     1.93700
Cr64       Cr  0.85619738  0.31531595  0.95948148     1.93200
Cr65       Cr  0.87889158  0.29510308  0.00409762     1.39100
O66         O  0.86114429  0.29710251  0.97944873    -1.23500
O67         O  0.66158047  0.28159477  0.99643249    -0.85800
O68         O  0.67758710  0.29338014  0.05781847    -0.82800
C69         C  0.68179933  0.30658919  0.04632151     0.97700
O70         O  0.67189015  0.31717304  0.04185879    -0.82900
O71         O  0.64338866  0.33094401  0.02833510    -0.85500
C72         C  0.63961643  0.32823392  0.99419944     1.02200
O73         O  0.63665197  0.31461711  0.98363672    -0.78300
O74         O  0.63694854  0.28294839  0.98195570    -0.78500
C75         C  0.65078906  0.27995424  0.97263271     1.02100
O76         O  0.63969176  0.26738189  0.04709952    -0.85800
O77         O  0.65383618  0.28212958  0.10669217    -0.82900
C78         C  0.65806149  0.29297909  0.12826490     0.97700
O79         O  0.66084881  0.30634144  0.11494138    -0.82900
O80         O  0.63213698  0.31812026  0.09846846    -0.85500
C81         C  0.61895542  0.31886681  0.08315004     1.02200
O82         O  0.61708563  0.31431366  0.04933558    -0.78300
O83         O  0.61967584  0.28269487  0.05206394    -0.78500
C84         C  0.62556627  0.26941868  0.05510545     1.02100
Cr85       Cr  0.65732483  0.28243419  0.05157244     1.93700
Cr86       Cr  0.65168658  0.31681380  0.06905513     1.93200
Cr87       Cr  0.62891045  0.29867788  0.01890566     1.39100
O88         O  0.64597880  0.29938194  0.04650277    -1.23500
O89         O  0.51050397  0.41694629  0.77270960    -0.85800
O90         O  0.53021787  0.43959720  0.74770549    -0.82800
C91         C  0.54207975  0.44597892  0.73406396     0.97700
O92         O  0.55070062  0.43851997  0.71150539    -0.82900
O93         O  0.56379395  0.41462359  0.75441070    -0.85500
C94         C  0.56457690  0.40199053  0.77241271     1.02200
O95         O  0.55530328  0.39107531  0.76482933    -0.78300
O96         O  0.52839711  0.40144797  0.79541312    -0.78500
C97         C  0.51707888  0.41037951  0.80061865     1.02100
O98         O  0.50611361  0.40717465  0.69465464    -0.85800
O99         O  0.52441470  0.43085813  0.66954427    -0.82900
C100        C  0.53290009  0.42489341  0.64407624     0.97700
O101        O  0.54418407  0.41637664  0.65298723    -0.82900
O102        O  0.56003885  0.39381790  0.69131285    -0.85500
C103        C  0.55198238  0.38183626  0.68487155     1.02200
O104        O  0.53864314  0.38062731  0.69910229    -0.78300
O105        O  0.51105755  0.38835535  0.73424994    -0.78500
C106        C  0.50269671  0.39418093  0.70852236     1.02100
Cr107      Cr  0.51908884  0.42265980  0.72139767     1.93700
Cr108      Cr  0.55328092  0.41548576  0.70419948     1.93200
Cr109      Cr  0.53344680  0.39179368  0.74650273     1.39100
O110        O  0.53522116  0.41003621  0.72410063    -1.23500
O111        O  0.51150698  0.61899090  0.75109454    -0.85800
O112        O  0.53140393  0.59681781  0.77692167    -0.82800
C113        C  0.54362475  0.59065205  0.78920424     0.97700
O114        O  0.55280595  0.59838582  0.80995644    -0.82900
O115        O  0.56564219  0.62193786  0.76527602    -0.85500
C116        C  0.56604924  0.63423711  0.74584870     1.02200
O117        O  0.55646003  0.64499247  0.75194813    -0.78300
O118        O  0.52932867  0.63350785  0.72465909    -0.78500
C119        C  0.51782963  0.62462431  0.72166509     1.02100
O120        O  0.50855712  0.63043625  0.82854311    -0.85800
O121        O  0.52681516  0.60679045  0.85452253    -0.82900
C122        C  0.53570356  0.61300561  0.87878741     0.97700
O123        O  0.54694464  0.62123281  0.86809881    -0.82900
O124        O  0.56195367  0.64345134  0.82672158    -0.85500
C125        C  0.55401541  0.65566530  0.83114693     1.02200
O126        O  0.54061923  0.65664754  0.81703999    -0.78300
O127        O  0.51259806  0.64798511  0.78511850    -0.78500
C128        C  0.50483051  0.64301445  0.81293345     1.02100
Cr129      Cr  0.52086686  0.61425117  0.80232533     1.93700
Cr130      Cr  0.55537941  0.62155762  0.81593333     1.93200
Cr131      Cr  0.53488445  0.64436517  0.77179868     1.39100
O132        O  0.53705733  0.62665643  0.79662779    -1.23500
O133        O  0.50718106  0.40565930  0.22960324    -0.85800
O134        O  0.49251524  0.41881168  0.16864997    -0.82800
C135        C  0.48174623  0.42265133  0.14641398     0.97700
O136        O  0.46843936  0.42595037  0.15936225    -0.82900
O137        O  0.45686878  0.39726257  0.17733001    -0.85500
C138        C  0.45572388  0.38440736  0.19406529     1.02200
O139        O  0.46031804  0.38294307  0.22797170    -0.78300
O140        O  0.49199898  0.38548740  0.22576915    -0.78500
C141        C  0.50525390  0.39141705  0.22245823     1.02100
O142        O  0.49244783  0.42817633  0.27815644    -0.85800
O143        O  0.48080455  0.44325583  0.21556646    -0.82900
C144        C  0.46762169  0.44736853  0.22748419     0.97700
O145        O  0.45710213  0.43739677  0.23181888    -0.82900
O146        O  0.44353732  0.40885147  0.24600573    -0.85500
C147        C  0.44606378  0.40531964  0.28038821     1.02200
O148        O  0.45970706  0.40323287  0.29195930    -0.78300
O149        O  0.49142421  0.40371953  0.29441189    -0.78500
C150        C  0.49416787  0.41771944  0.30276727     1.02100
Cr151      Cr  0.49197815  0.42316105  0.22341248     1.93700
Cr152      Cr  0.45779213  0.41707136  0.20546656     1.93200
Cr153      Cr  0.47584708  0.39510479  0.25782572     1.39100
O154        O  0.47513927  0.41176404  0.22889432    -1.23500
O155        O  0.50775136  0.63247997  0.29934938    -0.85800
O156        O  0.49246928  0.61775329  0.35743535    -0.82800
C157        C  0.48140076  0.61350180  0.37832956     0.97700
O158        O  0.46819003  0.61084086  0.36404105    -0.82900
O159        O  0.45694065  0.63979936  0.34745646    -0.85500
C160        C  0.45598520  0.65290112  0.33183197     1.02200
O161        O  0.46064116  0.65473343  0.29809475    -0.78300
O162        O  0.49225484  0.65246170  0.30221124    -0.78500
C163        C  0.50548963  0.64664569  0.30684908     1.02100
O164        O  0.49425074  0.61066124  0.24648385    -0.85800
O165        O  0.48165293  0.59435389  0.30619477    -0.82900
C166        C  0.46843631  0.59031422  0.29424402     0.97700
O167        O  0.45787601  0.60027259  0.29029859    -0.82900
O168        O  0.44434778  0.62877735  0.27670226    -0.85500
C169        C  0.44723403  0.63243443  0.24257442     1.02200
O170        O  0.46094000  0.63521987  0.23240849    -0.78300
O171        O  0.49273116  0.63525584  0.23199297    -0.78500
C172        C  0.49597313  0.62146137  0.22272610     1.02100
Cr173      Cr  0.49272951  0.61466748  0.30187183     1.93700
Cr174      Cr  0.45821169  0.62031819  0.31784654     1.93200
Cr175      Cr  0.47661376  0.64307095  0.26834919     1.39100
O176        O  0.47581092  0.62599706  0.29600618    -1.23500
O177        O  0.36418495  0.76277622  0.94509645    -0.85800
O178        O  0.34006344  0.74497084  0.92068225    -0.82800
C179        C  0.34605510  0.73616606  0.89596887     0.97700
O180        O  0.35425642  0.72480605  0.90592143    -0.82900
O181        O  0.37615024  0.70878634  0.94600246    -0.85500
C182        C  0.38856020  0.71633308  0.94072546     1.02200
O183        O  0.39004998  0.72973715  0.95460050    -0.78300
O184        O  0.38243891  0.75823203  0.98654042    -0.78500
C185        C  0.37697788  0.76634891  0.95977710     1.02100
O186        O  0.35372546  0.76000862  0.02296023    -0.85800
O187        O  0.33090234  0.74045473  0.99879868    -0.82900
C188        C  0.32415023  0.72875834  0.98542633     0.97700
O189        O  0.33148249  0.71950495  0.96405319    -0.82900
O190        O  0.35487938  0.70583527  0.00814671    -0.85500
C191        C  0.36730184  0.70503214  0.02702126     1.02200
O192        O  0.37830566  0.71434550  0.02061379    -0.78300
O193        O  0.36808851  0.74181685  0.04826257    -0.78500
C194        C  0.35938082  0.75340527  0.05195276     1.02100
Cr195      Cr  0.34818705  0.75073175  0.97226835     1.93700
Cr196      Cr  0.35455274  0.71616081  0.95764524     1.93200
Cr197      Cr  0.37832773  0.73596160  0.00051187     1.39100
O198        O  0.36032583  0.73428924  0.97686236    -1.23500
O199        O  0.13547031  0.76952924  0.05391495    -0.85800
O200        O  0.15134351  0.75446697  0.11088022    -0.82800
C201        C  0.15646481  0.74341006  0.13065925     0.97700
O202        O  0.15964665  0.73051700  0.11533069    -0.82900
O203        O  0.13099464  0.71765404  0.10050855    -0.85500
C204        C  0.11779800  0.71623713  0.08541789     1.02200
O205        O  0.11533569  0.72153995  0.05250270    -0.78300
O206        O  0.11614298  0.75327861  0.05810220    -0.78500
C207        C  0.12141955  0.76679921  0.06157082     1.02100
O208        O  0.15719090  0.75733880  0.99988743    -0.85800
O209        O  0.17475622  0.74529047  0.05800520    -0.82900
C210        C  0.17929851  0.73255190  0.04427660     0.97700
O211        O  0.16980517  0.72153748  0.04022152    -0.82900
O212        O  0.14156578  0.70660326  0.02853615    -0.85500
C213        C  0.13686625  0.70955930  0.99523892     1.02200
O214        O  0.13387478  0.72329162  0.98565769    -0.78300
O215        O  0.13248625  0.75505466  0.98709661    -0.78500
C216        C  0.14601430  0.75896050  0.97718240     1.02100
Cr217      Cr  0.15387883  0.75532466  0.05525301     1.93700
Cr218      Cr  0.15007353  0.72044750  0.06950218     1.93200
Cr219      Cr  0.12583149  0.73829138  0.02295608     1.39100
O220        O  0.14324126  0.73797363  0.04933062    -1.23500
O221        O  0.34247909  0.77515845  0.52831012    -0.85800
O222        O  0.32613546  0.78695600  0.46775792    -0.82800
C223        C  0.32187063  0.80024684  0.47868763     0.97700
O224        O  0.33171042  0.81093998  0.48250223    -0.82900
O225        O  0.36009359  0.82483540  0.49619117    -0.85500
C226        C  0.36382844  0.82231490  0.53040777     1.02200
O227        O  0.36649631  0.80871143  0.54163309    -0.78300
O228        O  0.36703957  0.77687617  0.54290337    -0.78500
C229        C  0.35326094  0.77366865  0.55217403     1.02100
O230        O  0.36463753  0.76146780  0.47684850    -0.85800
O231        O  0.34987159  0.77608457  0.41757376    -0.82900
C232        C  0.34557667  0.78700449  0.39622210     0.97700
O233        O  0.34276625  0.80027341  0.40989557    -0.82900
O234        O  0.37158913  0.81222875  0.42661321    -0.85500
C235        C  0.38453681  0.81362705  0.44289601     1.02200
O236        O  0.38627595  0.80892895  0.47662203    -0.78300
O237        O  0.38439559  0.77724206  0.47320920    -0.78500
C238        C  0.37878582  0.76386702  0.46941183     1.02100
Cr239      Cr  0.34662266  0.77622201  0.47306061     1.93700
Cr240      Cr  0.35192735  0.81069787  0.45563474     1.93200
Cr241      Cr  0.37471224  0.79292656  0.50639937     1.39100
O242        O  0.35773782  0.79332666  0.47832597    -1.23500
O243        O  0.15893563  0.77558283  0.50069128    -0.85800
O244        O  0.17457221  0.78912331  0.56029115    -0.82800
C245        C  0.17856969  0.80198072  0.54617691     0.97700
O246        O  0.16846234  0.81222615  0.53989349    -0.82900
O247        O  0.13956655  0.82519324  0.52519243    -0.85500
C248        C  0.13530717  0.82182046  0.49178409     1.02200
O249        O  0.13284149  0.80791530  0.48269886    -0.78300
O250        O  0.13432196  0.77611786  0.48544809    -0.78500
C251        C  0.14828068  0.77325391  0.47686355     1.02100
O252        O  0.13725048  0.76198733  0.55305963    -0.85800
O253        O  0.15074060  0.77870871  0.61054157    -0.82900
C254        C  0.15472179  0.79018827  0.63039031     0.97700
O255        O  0.15775948  0.80306673  0.61473406    -0.82900
O256        O  0.12879381  0.81398010  0.59684208    -0.85500
C257        C  0.11556455  0.81405667  0.58161464     1.02200
O258        O  0.11362621  0.80835854  0.54887310    -0.78300
O259        O  0.11696257  0.77698598  0.55564133    -0.78500
C260        C  0.12307847  0.76392417  0.56071764     1.02100
Cr261      Cr  0.15450982  0.77761855  0.55551029     1.93700
Cr262      Cr  0.14831462  0.81222642  0.56748269     1.93200
Cr263      Cr  0.12578285  0.79243014  0.52027938     1.39100
O264        O  0.14285866  0.79417984  0.54763481    -1.23500
O265        O  0.00030517  0.40275394  0.79728193    -0.85800
O266        O  0.01546653  0.41656363  0.85660808    -0.82800
C267        C  0.02651917  0.42050350  0.87791314     0.97700
O268        O  0.03966601  0.42369659  0.86393730    -0.82900
O269        O  0.05165765  0.39526430  0.84406608    -0.85500
C270        C  0.05288663  0.38256333  0.82663621     1.02200
O271        O  0.04774403  0.38124418  0.79321493    -0.78300
O272        O  0.01609055  0.38298009  0.79889002    -0.78500
C273        C  0.00278511  0.38856033  0.80411410     1.02100
O274        O  0.01355079  0.42564583  0.74676741    -0.85800
O275        O  0.02586464  0.44113814  0.80833366    -0.82900
C276        C  0.03898700  0.44554637  0.79660323     0.97700
O277        O  0.04959671  0.43577440  0.79117717    -0.82900
O278        O  0.06349050  0.40771988  0.77456507    -0.85500
C279        C  0.06061568  0.40423409  0.74033542     1.02200
O280        O  0.04688168  0.40172471  0.72983248    -0.78300
O281        O  0.01506544  0.40124292  0.73054265    -0.78500
C282        C  0.01196717  0.41514747  0.72218863     1.02100
Cr283      Cr  0.01509268  0.42071861  0.80163705     1.93700
Cr284      Cr  0.04972354  0.41527601  0.81668467     1.93200
Cr285      Cr  0.03144382  0.39309728  0.76539865     1.39100
O286        O  0.03214465  0.40970722  0.79460707    -1.23500
O287        O  0.99639732  0.63008963  0.73359028    -0.85800
O288        O  0.01086971  0.61677682  0.67292917    -0.82800
C289        C  0.02167784  0.61298223  0.65083382     0.97700
O290        O  0.03500964  0.60989212  0.66387217    -0.82900
O291        O  0.04621011  0.63874891  0.68168936    -0.85500
C292        C  0.04749319  0.65154912  0.69858742     1.02200
O293        O  0.04327369  0.65281568  0.73283872    -0.78300
O294        O  0.01164462  0.65028283  0.73070264    -0.78500
C295        C  0.99845938  0.64431564  0.72644287     1.02100
O296        O  0.01099495  0.60756021  0.78263643    -0.85800
O297        O  0.02274573  0.59244782  0.72017393    -0.82900
C298        C  0.03613308  0.58843364  0.73101012     0.97700
O299        O  0.04652574  0.59851495  0.73568647    -0.82900
O300        O  0.05992444  0.62707196  0.75031118    -0.85500
C301        C  0.05741573  0.63020579  0.78492362     1.02200
O302        O  0.04377830  0.63218085  0.79654595    -0.78300
O303        O  0.01206002  0.63197932  0.79907434    -0.78500
C304        C  0.00931694  0.61797354  0.80735361     1.02100
Cr305      Cr  0.01149604  0.61253617  0.72781878     1.93700
Cr306      Cr  0.04562177  0.61886940  0.70974084     1.93200
Cr307      Cr  0.02769967  0.64056090  0.76260067     1.39100
O308        O  0.02831121  0.62398187  0.73337728    -1.23500
O309        O  0.99668186  0.41615296  0.25108663    -0.85800
O310        O  0.97692312  0.43843707  0.27723146    -0.82800
C311        C  0.96511361  0.44478269  0.29116940     0.97700
O312        O  0.95627174  0.43710822  0.31289383    -0.82900
O313        O  0.94281748  0.41361966  0.26902722    -0.85500
C314        C  0.94196770  0.40123821  0.25004815     1.02200
O315        O  0.95158506  0.39041398  0.25562988    -0.78300
O316        O  0.97866893  0.40132385  0.22642451    -0.78500
C317        C  0.99019870  0.41010070  0.22239579     1.02100
O318        O  0.00063843  0.40529573  0.32835238    -0.85800
O319        O  0.98242269  0.42893865  0.35470848    -0.82900
C320        C  0.97393044  0.42266626  0.37968184     0.97700
O321        O  0.96274789  0.41415868  0.37009296    -0.82900
O322        O  0.94688489  0.39205931  0.33035630    -0.85500
C323        C  0.95484312  0.37986848  0.33507293     1.02200
O324        O  0.96812200  0.37884010  0.32042449    -0.78300
O325        O  0.99582957  0.38718502  0.28672390    -0.78500
C326        C  0.00410967  0.39254800  0.31323973     1.02100
Cr327      Cr  0.98786508  0.42121257  0.30252035     1.93700
Cr328      Cr  0.95360289  0.41391941  0.31890919     1.93200
Cr329      Cr  0.97344105  0.39085187  0.27431526     1.39100
O330        O  0.97165169  0.40871556  0.29847235    -1.23500
O331        O  0.99494722  0.62044667  0.27690015    -0.85800
O332        O  0.97601715  0.59699721  0.25223612    -0.82800
C333        C  0.96429993  0.59019059  0.23902434     0.97700
O334        O  0.95504544  0.59742731  0.21740771    -0.82900
O335        O  0.94121377  0.62114752  0.25936197    -0.85500
C336        C  0.94015242  0.63372997  0.27742886     1.02200
O337        O  0.94916734  0.64485564  0.26986279    -0.78300
O338        O  0.97637488  0.63493815  0.30015519    -0.78500
C339        C  0.98816606  0.62660498  0.30502432     1.02100
O340        O  0.99855663  0.63032564  0.19880049    -0.85800
O341        O  0.98110127  0.60575406  0.17436028    -0.82900
C342        C  0.97221056  0.61116532  0.14898500     0.97700
O343        O  0.96078190  0.61947256  0.15789339    -0.82900
O344        O  0.94457865  0.64194930  0.19567993    -0.85500
C345        C  0.95233912  0.65419246  0.18967341     1.02200
O346        O  0.96557861  0.65573450  0.20429050    -0.78300
O347        O  0.99336041  0.64870152  0.23933640    -0.78500
C348        C  0.00180566  0.64323989  0.21333621     1.02100
Cr349      Cr  0.98632667  0.61434747  0.22583562     1.93700
Cr350      Cr  0.95179176  0.62039776  0.20921956     1.93200
Cr351      Cr  0.97104470  0.64462611  0.25149784     1.39100
O352        O  0.96974245  0.62637944  0.22890558    -1.23500
O353        O  0.50391311  0.13196293  0.19268547    -0.85800
O354        O  0.52157637  0.10747786  0.16959389    -0.82800
C355        C  0.53028390  0.11322504  0.14427495     0.97700
O356        O  0.54170927  0.12150345  0.15343265    -0.82900
O357        O  0.55796910  0.14370056  0.19187777    -0.85500
C358        C  0.55034897  0.15594074  0.18522270     1.02200
O359        O  0.53691467  0.15751833  0.19860147    -0.78300
O360        O  0.50895733  0.15061469  0.23264459    -0.78500
C361        C  0.50071555  0.14501579  0.20644314     1.02100
O362        O  0.50712173  0.12248016  0.27142243    -0.85800
O363        O  0.52637457  0.09928011  0.24842632    -0.82900
C364        C  0.53812920  0.09243805  0.23572635     0.97700
O365        O  0.54715087  0.09940039  0.21310908    -0.82900
O366        O  0.56073375  0.12311331  0.25561079    -0.85500
C367        C  0.56174041  0.13580830  0.27327633     1.02200
O368        O  0.55279871  0.14691494  0.26509050    -0.78300
O369        O  0.52536516  0.13743397  0.29473355    -0.78500
C370        C  0.51363807  0.12900282  0.29947547     1.02100
Cr371      Cr  0.51602727  0.11623330  0.22078250     1.93700
Cr372      Cr  0.55051326  0.12230314  0.20501936     1.93200
Cr373      Cr  0.53108915  0.14670261  0.24591324     1.39100
O374        O  0.53250810  0.12835309  0.22402565    -1.23500
O375        O  0.49385170  0.90568457  0.29862645    -0.85800
O376        O  0.50889615  0.92045761  0.35682845    -0.82800
C377        C  0.51985476  0.92496765  0.37771833     0.97700
O378        O  0.53306324  0.92780194  0.36364103    -0.82900
O379        O  0.54521829  0.89916545  0.34763033    -0.85500
C380        C  0.54612794  0.88594056  0.33265438     1.02200
O381        O  0.54111558  0.88373384  0.29933260    -0.78300
O382        O  0.50941131  0.88582262  0.30298410    -0.78500
C383        C  0.49611994  0.89160677  0.30696552     1.02100
O384        O  0.50732802  0.92747401  0.24628543    -0.85800
O385        O  0.51945618  0.94410802  0.30621792    -0.82900
C386        C  0.53262841  0.94839592  0.29458086     0.97700
O387        O  0.54322360  0.93853761  0.28993624    -0.82900
O388        O  0.55726587  0.91027790  0.27672971    -0.85500
C389        C  0.55438182  0.90637048  0.24279372     1.02200
O390        O  0.54076782  0.90297545  0.23292546    -0.78300
O391        O  0.50904278  0.90282259  0.23222896    -0.78500
C392        C  0.50562821  0.91657512  0.22284297     1.02100
Cr393      Cr  0.50872189  0.92358107  0.30150227     1.93700
Cr394      Cr  0.54330675  0.91850977  0.31769869     1.93200
Cr395      Cr  0.52511524  0.89518189  0.26900852     1.39100
O396        O  0.52577967  0.91241664  0.29606971    -1.23500
O397        O  0.48936874  0.10922934  0.77827334    -0.85800
O398        O  0.47786812  0.09427669  0.71491277    -0.82800
C399        C  0.46444254  0.09041573  0.72560703     0.97700
O400        O  0.45420516  0.10066542  0.73013393    -0.82900
O401        O  0.44124436  0.12956026  0.74450423    -0.85500
C402        C  0.44377999  0.13334608  0.77873723     1.02200
O403        O  0.45743558  0.13536006  0.79031506    -0.78300
O404        O  0.48904016  0.13379724  0.79372533    -0.78500
C405        C  0.49128986  0.11975824  0.80264063     1.02100
O406        O  0.50512959  0.13112814  0.73014202    -0.85800
O407        O  0.49051158  0.11832519  0.66850417    -0.82900
C408        C  0.47968218  0.11503566  0.64587871     0.97700
O409        O  0.46619848  0.11213390  0.65833777    -0.82900
O410        O  0.45494268  0.14095595  0.67578211    -0.85500
C411        C  0.45414238  0.15390225  0.69219403     1.02200
O412        O  0.45892741  0.15536846  0.72593681    -0.78300
O413        O  0.49062789  0.15170540  0.72447811    -0.78500
C414        C  0.50373492  0.14536340  0.72228534     1.02100
Cr415      Cr  0.48944607  0.11410048  0.72334353     1.93700
Cr416      Cr  0.45547831  0.12109848  0.70412277     1.93200
Cr417      Cr  0.47396915  0.14278209  0.75637382     1.39100
O418        O  0.47287424  0.12600308  0.72793626    -1.23500
O419        O  0.48561979  0.92733391  0.74719695    -0.85800
O420        O  0.47280144  0.94329210  0.80675129    -0.82800
C421        C  0.45995996  0.94739193  0.79281982     0.97700
O422        O  0.44937223  0.93750710  0.78811564    -0.82900
O423        O  0.43604378  0.90898966  0.77274421    -0.85500
C424        C  0.43945091  0.90506626  0.73910283     1.02200
O425        O  0.45331824  0.90251552  0.73006029    -0.78300
O426        O  0.48499153  0.90270714  0.73272455    -0.78500
C427        C  0.48780122  0.91660267  0.72356967     1.02100
O428        O  0.49894169  0.90542110  0.79958254    -0.85800
O429        O  0.48306442  0.91956832  0.85740949    -0.82900
C430        C  0.47178921  0.92379092  0.87763408     0.97700
O431        O  0.45868340  0.92644030  0.86262554    -0.82900
O432        O  0.44710562  0.89758635  0.84418868    -0.85500
C433        C  0.44633690  0.88456505  0.82799592     1.02200
O434        O  0.45198067  0.88279869  0.79515721    -0.78300
O435        O  0.48364192  0.88529292  0.80243910    -0.78500
C436        C  0.49682365  0.89124635  0.80706133     1.02100
Cr437      Cr  0.48383526  0.92303871  0.80218599     1.93700
Cr438      Cr  0.44918379  0.91728429  0.81533663     1.93200
Cr439      Cr  0.46840795  0.89463771  0.76732037     1.39100
O440        O  0.46707518  0.91162505  0.79508102    -1.23500
O441        O  0.86384730  0.76514709  0.04569270    -0.85800
O442        O  0.84985827  0.78011132  0.10518228    -0.82800
C443        C  0.84568492  0.79097673  0.12673595     0.97700
O444        O  0.84234846  0.80414588  0.11301574    -0.82900
O445        O  0.87110587  0.81586510  0.09651211    -0.85500
C446        C  0.88421465  0.81674754  0.08095142     1.02200
O447        O  0.88607033  0.81217697  0.04714098    -0.78300
O448        O  0.88380034  0.78061316  0.04930411    -0.78500
C449        C  0.87805731  0.76730042  0.05287718     1.02100
O450        O  0.84162668  0.77913836  0.99506180    -0.85800
O451        O  0.82570742  0.79118751  0.05593412    -0.82900
C452        C  0.82153260  0.80439485  0.04408828     0.97700
O453        O  0.83146867  0.81496759  0.03979041    -0.82900
O454        O  0.86007670  0.82882042  0.02676157    -0.85500
C455        C  0.86402195  0.82621435  0.99271432     1.02200
O456        O  0.86634112  0.81254866  0.98166301    -0.78300
O457        O  0.86612211  0.78085748  0.97952142    -0.78500
C458        C  0.85224681  0.77765724  0.97080473     1.02100
Cr459      Cr  0.84608098  0.78019247  0.05006384     1.93700
Cr460      Cr  0.85159650  0.81461029  0.06714175     1.93200
Cr461      Cr  0.87425945  0.79656515  0.01656300     1.39100
O462        O  0.85730969  0.79718168  0.04452456    -1.23500
O463        O  0.63810059  0.77598398  0.94582286    -0.85800
O464        O  0.66223990  0.79402202  0.92220249    -0.82800
C465        C  0.65619507  0.80248114  0.89684425     0.97700
O466        O  0.64761502  0.81367216  0.90595184    -0.82900
O467        O  0.62482133  0.82905326  0.94435464    -0.85500
C468        C  0.61282198  0.82083983  0.93908328     1.02200
O469        O  0.61185704  0.80756052  0.95375007    -0.78300
O470        O  0.62014020  0.78007778  0.98811830    -0.78500
C471        C  0.62539626  0.77227447  0.96071033     1.02100
O472        O  0.64806385  0.77918743  0.02420709    -0.85800
O473        O  0.67065406  0.79908228  0.00033880    -0.82900
C474        C  0.67715245  0.81097394  0.98720736     0.97700
O475        O  0.66974407  0.82001722  0.96534092    -0.82900
O476        O  0.64561834  0.83333310  0.00741336    -0.85500
C477        C  0.63301506  0.83392965  0.02553675     1.02200
O478        O  0.62236088  0.82428102  0.01879281    -0.78300
O479        O  0.63360364  0.79749758  0.04864116    -0.78500
C480        C  0.64213654  0.78580885  0.05284566     1.02100
Cr481      Cr  0.65380335  0.78832356  0.97344289     1.93700
Cr482      Cr  0.64664506  0.82264806  0.95736917     1.93200
Cr483      Cr  0.62337408  0.80248993  0.00044769     1.39100
O484        O  0.64135357  0.80451761  0.97719172    -1.23500
O485        O  0.85321290  0.76240909  0.50034966    -0.85800
O486        O  0.82973386  0.74385776  0.52547026    -0.82800
C487        C  0.82282355  0.73218021  0.53848405     0.97700
O488        O  0.82988296  0.72282604  0.56013956    -0.82900
O489        O  0.85289421  0.70830295  0.51755533    -0.85500
C490        C  0.86530823  0.70694968  0.49896523     1.02200
O491        O  0.87652729  0.71605665  0.50483328    -0.78300
O492        O  0.86701596  0.74363033  0.47567879    -0.78500
C493        C  0.85888053  0.75561114  0.47163594     1.02100
O494        O  0.86381629  0.76531097  0.57823864    -0.85800
O495        O  0.83898597  0.74856448  0.60325874    -0.82900
C496        C  0.84437610  0.73953673  0.62836528     0.97700
O497        O  0.85240411  0.72797809  0.61894732    -0.82900
O498        O  0.87411210  0.71129763  0.57961815    -0.85500
C499        C  0.88663004  0.71866945  0.58465827     1.02200
O500        O  0.88840634  0.73190207  0.57016547    -0.78300
O501        O  0.88167616  0.76003007  0.53642890    -0.78500
C502        C  0.87669652  0.76831936  0.56331925     1.02100
Cr503      Cr  0.84736628  0.75369948  0.55148871     1.93700
Cr504      Cr  0.85273509  0.71902625  0.56744093     1.93200
Cr505      Cr  0.87699234  0.73785194  0.52376135     1.39100
O506        O  0.85895672  0.73685242  0.54743497    -1.23500
O507        O  0.65898209  0.76262044  0.53006358    -0.85800
O508        O  0.67462116  0.75120804  0.46814473    -0.82800
C509        C  0.67890221  0.73794654  0.47933858     0.97700
O510        O  0.66908232  0.72726221  0.48322505    -0.82900
O511        O  0.64097645  0.71309342  0.49698672    -0.85500
C512        C  0.63766259  0.71538932  0.53153743     1.02200
O513        O  0.63485744  0.72889593  0.54324312    -0.78300
O514        O  0.63458295  0.76068278  0.54624685    -0.78500
C515        C  0.64848070  0.76385507  0.55471711     1.02100
O516        O  0.63633172  0.77670166  0.48071867    -0.85800
O517        O  0.65003554  0.76239347  0.42001488    -0.82900
C518        C  0.65419196  0.75165606  0.39805384     0.97700
O519        O  0.65770608  0.73846790  0.41124175    -0.82900
O520        O  0.62904826  0.72636096  0.42841537    -0.85500
C521        C  0.61617754  0.72488292  0.44491651     1.02200
O522        O  0.61456926  0.72934022  0.47889630    -0.78300
O523        O  0.61643420  0.76111762  0.47741890    -0.78500
C524        C  0.62213710  0.77446176  0.47361245     1.02100
Cr525      Cr  0.65418587  0.76193896  0.47512400     1.93700
Cr526      Cr  0.64882139  0.72763493  0.45682318     1.93200
Cr527      Cr  0.62639940  0.74503245  0.50923511     1.39100
O528        O  0.64313403  0.74481910  0.48043766    -1.23500
O529        O  0.36660956  0.26668823  0.55066910    -0.85800
O530        O  0.35290523  0.28241157  0.60928975    -0.82800
C531        C  0.34865680  0.29353623  0.62994483     0.97700
O532        O  0.34575738  0.30665954  0.61540481    -0.82900
O533        O  0.37463480  0.31812076  0.59771616    -0.85500
C534        C  0.38764749  0.31894897  0.58158201     1.02200
O535        O  0.38943863  0.31350379  0.54853846    -0.78300
O536        O  0.38686765  0.28178525  0.55348489    -0.78500
C537        C  0.38082003  0.26862986  0.55796442     1.02100
O538        O  0.34460979  0.28033364  0.49930412    -0.85800
O539        O  0.32895149  0.29311651  0.55981379    -0.82900
C540        C  0.32478128  0.30613881  0.54697347     0.97700
O541        O  0.33474271  0.31659964  0.54153890    -0.82900
O542        O  0.36338837  0.33002030  0.52717232    -0.85500
C543        C  0.36722430  0.32694893  0.49331629     1.02200
O544        O  0.36969045  0.31315596  0.48336181    -0.78300
O545        O  0.36914735  0.28140688  0.48383388    -0.78500
C546        C  0.35523054  0.27832843  0.47526349     1.02100
Cr547      Cr  0.34912581  0.28193142  0.55422811     1.93700
Cr548      Cr  0.35498295  0.31646323  0.56872683     1.93200
Cr549      Cr  0.37748039  0.29751933  0.51952063     1.39100
O550        O  0.36055322  0.29870368  0.54749162    -1.23500
O551        O  0.13957236  0.26478899  0.47712212    -0.85800
O552        O  0.15358199  0.27973473  0.41728599    -0.82800
C553        C  0.15750501  0.29072460  0.39569161     0.97700
O554        O  0.16046770  0.30399092  0.40945792    -0.82900
O555        O  0.13172970  0.31591015  0.42655478    -0.85500
C556        C  0.11871838  0.31705503  0.44254016     1.02200
O557        O  0.11678997  0.31175565  0.47569754    -0.78300
O558        O  0.11933750  0.27986076  0.47256441    -0.78500
C559        C  0.12535336  0.26661284  0.46974351     1.02100
O560        O  0.16133922  0.27903756  0.52801415    -0.85800
O561        O  0.17741300  0.29095414  0.46711457    -0.82900
C562        C  0.18146402  0.30411138  0.47932843     0.97700
O563        O  0.17150036  0.31466970  0.48302976    -0.82900
O564        O  0.14305689  0.32829905  0.49681101    -0.85500
C565        C  0.13907045  0.32550360  0.53075854     1.02200
O566        O  0.13631501  0.31182231  0.54117872    -0.78300
O567        O  0.13671986  0.28012638  0.54259672    -0.78500
C568        C  0.15059289  0.27719233  0.55183143     1.02100
Cr569      Cr  0.15711612  0.27993809  0.47275332     1.93700
Cr570      Cr  0.15133387  0.31432556  0.45575310     1.93200
Cr571      Cr  0.12861277  0.29592727  0.50572103     1.39100
O572        O  0.14565823  0.29679436  0.47800592    -1.23500
O573        O  0.34485848  0.26026256  0.99982044    -0.85800
O574        O  0.32809008  0.24740692  0.05856163    -0.82800
C575        C  0.32407342  0.23456888  0.04451180     0.97700
O576        O  0.33405649  0.22418405  0.03894071    -0.82900
O577        O  0.36255129  0.21068595  0.02522952    -0.85500
C578        C  0.36704834  0.21434319  0.99212437     1.02200
O579        O  0.36999509  0.22824736  0.98412369    -0.78300
O580        O  0.36970565  0.25982798  0.98775411    -0.78500
C581        C  0.35595255  0.26249499  0.97721814     1.02100
O582        O  0.36607707  0.27353472  0.05379706    -0.85800
O583        O  0.35123366  0.25748378  0.11047261    -0.82900
C584        C  0.34670037  0.24615829  0.13017663     0.97700
O585        O  0.34419233  0.23308223  0.11476840    -0.82900
O586        O  0.37296776  0.22132080  0.09824829    -0.85500
C587        C  0.38617411  0.22065062  0.08316773     1.02200
O588        O  0.38848346  0.22655495  0.05085795    -0.78300
O589        O  0.38599959  0.25810915  0.05904958    -0.78500
C590        C  0.38011841  0.27136913  0.06255511     1.02100
Cr591      Cr  0.34841251  0.25841842  0.05511653     1.93700
Cr592      Cr  0.35381681  0.22368980  0.06778422     1.93200
Cr593      Cr  0.37723003  0.24310547  0.02256700     1.39100
O594        O  0.35984975  0.24165342  0.04862786    -1.23500
O595        O  0.15121309  0.26189189  0.02005342    -0.85800
O596        O  0.17382802  0.24204668  0.99664642    -0.82800
C597        C  0.18041622  0.23011431  0.98415087     0.97700
O598        O  0.17310467  0.22080845  0.96287638    -0.82900
O599        O  0.14946573  0.20752219  0.00596543    -0.85500
C600        C  0.13691117  0.20664120  0.02416638     1.02200
O601        O  0.12614248  0.21625214  0.01796267    -0.78300
O602        O  0.13662465  0.24391876  0.04556808    -0.78500
C603        C  0.14526244  0.25559574  0.04914701     1.02100
O604        O  0.14095444  0.26427788  0.94149379    -0.85800
O605        O  0.16511081  0.24628908  0.91821941    -0.82900
C606        C  0.15932495  0.23731801  0.89351652     0.97700
O607        O  0.15089149  0.22613160  0.90347013    -0.82900
O608        O  0.12851196  0.21059946  0.94314330    -0.85500
C609        C  0.11623307  0.21831089  0.93755840     1.02200
O610        O  0.11484016  0.23168592  0.95157431    -0.78300
O611        O  0.12266286  0.25999465  0.98292633    -0.78500
C612        C  0.12801947  0.26774572  0.95546112     1.02100
Cr613      Cr  0.15678660  0.25232180  0.96949957     1.93700
Cr614      Cr  0.15013197  0.21772390  0.95544822     1.93200
Cr615      Cr  0.12649449  0.23785775  0.99761827     1.39100
O616        O  0.14451570  0.23596545  0.97426144    -1.23500
O617        O  0.00401191  0.13108862  0.79239993    -0.85800
O618        O  0.99001887  0.11704808  0.85295489    -0.82800
C619        C  0.97936029  0.11328105  0.87557610     0.97700
O620        O  0.96594741  0.11010108  0.86308282    -0.82900
O621        O  0.95378196  0.13866701  0.84613196    -0.85500
C622        C  0.95243229  0.15160488  0.82988761     1.02200
O623        O  0.95689544  0.15330490  0.79598856    -0.78300
O624        O  0.98870490  0.15113734  0.79736666    -0.78500
C625        C  0.00200280  0.14524014  0.80035880     1.02100
O626        O  0.98938680  0.10898878  0.74250486    -0.85800
O627        O  0.97830494  0.09297742  0.80451844    -0.82900
C628        C  0.96494941  0.08882563  0.79385887     0.97700
O629        O  0.95428072  0.09870512  0.79096758    -0.82900
O630        O  0.94034470  0.12688051  0.77724796    -0.85500
C631        C  0.94267711  0.13043617  0.74279829     1.02200
O632        O  0.95617347  0.13344131  0.73130643    -0.78300
O633        O  0.98795340  0.13358279  0.72784730    -0.78500
C634        C  0.99097692  0.11974843  0.71859097     1.02100
Cr635      Cr  0.98911134  0.11334210  0.79775456     1.93700
Cr636      Cr  0.95493749  0.11896028  0.81746534     1.93200
Cr637      Cr  0.97242937  0.14155284  0.76535469     1.39100
O638        O  0.97209287  0.12461758  0.79355314    -1.23500
O639        O  0.00420928  0.90477809  0.72036771    -0.85800
O640        O  0.98790798  0.91839471  0.66246527    -0.82800
C641        C  0.97657442  0.92240202  0.64214859     0.97700
O642        O  0.96341272  0.92482143  0.65698891    -0.82900
O643        O  0.95255560  0.89584669  0.67587796    -0.85500
C644        C  0.95197163  0.88288931  0.69235265     1.02200
O645        O  0.95763466  0.88129083  0.72521711    -0.78300
O646        O  0.98921306  0.88443786  0.71766360    -0.78500
C647        C  0.00228806  0.89058377  0.71268778     1.02100
O648        O  0.99038857  0.92664686  0.77240027    -0.85800
O649        O  0.97713725  0.94209409  0.71226795    -0.82900
C650        C  0.96409628  0.94603732  0.72532040     0.97700
O651        O  0.95382018  0.93591963  0.73097001    -0.82900
O652        O  0.94110532  0.90720856  0.74708984    -0.85500
C653        C  0.94457399  0.90344733  0.78084095     1.02200
O654        O  0.95848498  0.90104678  0.78993657    -0.78300
O655        O  0.99019788  0.90205027  0.78731804    -0.78500
C656        C  0.99267167  0.91603037  0.79632168     1.02100
Cr657      Cr  0.98865622  0.92210115  0.71750075     1.93700
Cr658      Cr  0.95411207  0.91561378  0.70436311     1.93200
Cr659      Cr  0.97380571  0.89350347  0.75281657     1.39100
O660        O  0.97210919  0.91040593  0.72487208    -1.23500
O661        O  0.01060612  0.11779323  0.24941340    -0.85800
O662        O  0.02988480  0.09464165  0.27414972    -0.82800
C663        C  0.04156716  0.08793894  0.28777945     0.97700
O664        O  0.05057630  0.09519822  0.30983148    -0.82900
O665        O  0.06418462  0.11872987  0.26629894    -0.85500
C666        C  0.06510898  0.13137107  0.24831028     1.02200
O667        O  0.05614585  0.14247197  0.25639397    -0.78300
O668        O  0.02873638  0.13290528  0.22628749    -0.78500
C669        C  0.01704939  0.12440484  0.22136528     1.02100
O670        O  0.00700115  0.12758237  0.32768924    -0.85800
O671        O  0.02472467  0.10356465  0.35247320    -0.82900
C672        C  0.03337630  0.10953007  0.37767494     0.97700
O673        O  0.04497471  0.11753005  0.36831979    -0.82900
O674        O  0.06128168  0.13959152  0.32963154    -0.85500
C675        C  0.05346545  0.15166962  0.33661452     1.02200
O676        O  0.04010522  0.15318378  0.32264755    -0.78300
O677        O  0.01220087  0.14634738  0.28818240    -0.78500
C678        C  0.00389646  0.14070085  0.31419315     1.02100
Cr679      Cr  0.01936296  0.11182700  0.30059629     1.93700
Cr680      Cr  0.05386395  0.11811991  0.31687274     1.93200
Cr681      Cr  0.03438717  0.14230122  0.27522857     1.39100
O682        O  0.03582580  0.12400501  0.29740956    -1.23500
O683        O  0.01131185  0.92526254  0.27354025    -0.85800
O684        O  0.02393972  0.94060893  0.21272618    -0.82800
C685        C  0.03712451  0.94441143  0.22522558     0.97700
O686        O  0.04745258  0.93423726  0.22971804    -0.82900
O687        O  0.06031957  0.90537931  0.24421517    -0.85500
C688        C  0.05735138  0.90187153  0.27838821     1.02200
O689        O  0.04355112  0.89983155  0.28879894    -0.78300
O690        O  0.01182567  0.90072925  0.28899896    -0.78500
C691        C  0.00919518  0.91469787  0.29766082     1.02100
O692        O  0.99684939  0.90341637  0.22276330    -0.85800
O693        O  0.01233679  0.91711982  0.16329428    -0.82900
C694        C  0.02342735  0.92131510  0.14241925     0.97700
O695        O  0.03679364  0.92343887  0.15646595    -0.82900
O696        O  0.04752995  0.89424212  0.17414932    -0.85500
C697        C  0.04794016  0.88122506  0.19042249     1.02200
O698        O  0.04320147  0.87981146  0.22417570    -0.78300
O699        O  0.01168438  0.88294655  0.21997062    -0.78500
C700        C  0.99857677  0.88912197  0.21603453     1.02100
Cr701      Cr  0.01236920  0.92069286  0.21857496     1.93700
Cr702      Cr  0.04667438  0.91400140  0.20285093     1.93200
Cr703      Cr  0.02764778  0.89213765  0.25326658     1.39100
O704        O  0.02894251  0.90892257  0.22478660    -1.23500
C705        C  0.04025962  0.96096089  0.23361795    -0.03800
C706        C  0.02839082  0.97198009  0.22909093    -0.09600
C707        C  0.03105293  0.98759634  0.23691936    -0.17200
C708        C  0.04560165  0.99253824  0.24940265     0.24900
C709        C  0.05753433  0.98170142  0.25405727    -0.18900
C710        C  0.05488554  0.96598916  0.24623636    -0.07800
C711        C  0.04802917  0.00876715  0.25718189    -0.14200
C712        C  0.04854742  0.02257585  0.26253805    -0.14000
C713        C  0.04752022  0.03913139  0.26763853     0.24800
C714        C  0.05718789  0.04682049  0.29340312    -0.19400
C715        C  0.05556960  0.06279370  0.29927041    -0.07900
C716        C  0.04419603  0.07127733  0.27954123    -0.03900
C717        C  0.03470134  0.06345475  0.25334242    -0.09200
C718        C  0.03637040  0.04753340  0.24746032    -0.16900
H719        H  0.01698353  0.96855043  0.21951390     0.11300
H720        H  0.02172404  0.99584313  0.23320432     0.10500
H721        H  0.06885609  0.98538359  0.26370820     0.10500
H722        H  0.06425076  0.95780613  0.25003352     0.11000
H723        H  0.06582924  0.04045085  0.30930125     0.11100
H724        H  0.06299835  0.06843225  0.31980684     0.11000
H725        H  0.02581813  0.06959695  0.23773139     0.11200
H726        H  0.02879267  0.04172647  0.22750692     0.10000
C727        C  0.99826231  0.91970782  0.83502287    -0.03800
C728        C  0.00065751  0.93511514  0.84669824    -0.09600
C729        C  0.00495020  0.93839812  0.88421500    -0.17200
C730        C  0.00690168  0.92632467  0.91033642     0.24900
C731        C  0.00482417  0.91100047  0.89869025    -0.18900
C732        C  0.00055549  0.90770005  0.86139814    -0.07800
C733        C  0.01051097  0.92937191  0.94951148    -0.14200
C734        C  0.01302984  0.93006878  0.98312888    -0.14000
C735        C  0.01555713  0.92897025  0.02342882     0.24800
C736        C  0.03054210  0.93001772  0.03830510    -0.19400
C737        C  0.03310828  0.92768442  0.07709158    -0.07900
C738        C  0.02070230  0.92418072  0.10148920    -0.03900
C739        C  0.00565171  0.92335747  0.08631232    -0.09200
C740        C  0.00311693  0.92573977  0.04756685    -0.16900
H741        H  0.99894834  0.94461518  0.82708354     0.11300
H742        H  0.00651151  0.95031799  0.89295370     0.10500
H743        H  0.00628527  0.90156861  0.91865973     0.10500
H744        H  0.99879712  0.89572202  0.85343467     0.11000
H745        H  0.04027671  0.93238292  0.01983612     0.11100
H746        H  0.04482653  0.92840518  0.08785967     0.11000
H747        H  0.99584100  0.92073822  0.10430191     0.11200
H748        H  0.99148021  0.92478485  0.03632236     0.10000
C749        C  0.97887095  0.92457941  0.60087794    -0.03800
C750        C  0.99350755  0.92192871  0.58467394    -0.09600
C751        C  0.99575102  0.92364182  0.54571121    -0.17200
C752        C  0.98344386  0.92804349  0.52231301     0.24900
C753        C  0.96884286  0.93082808  0.53808183    -0.18900
C754        C  0.96655712  0.92912872  0.57718902    -0.07800
C755        C  0.98580637  0.92884543  0.48199238    -0.14200
C756        C  0.98879863  0.92801274  0.44868176    -0.14000
C757        C  0.99329956  0.92497901  0.41014730     0.24800
C758        C  0.99512548  0.90963973  0.39840927    -0.19400
C759        C  0.00013114  0.90635757  0.36170444    -0.07900
C760        C  0.00339288  0.91840116  0.33605978    -0.03900
C761        C  0.00141712  0.93383181  0.34793146    -0.09200
C762        C  0.99641554  0.93709489  0.38486786    -0.16900
H763        H  0.00323067  0.91839686  0.60204418     0.11300
H764        H  0.00706964  0.92134728  0.53375182     0.10500
H765        H  0.95920671  0.93413271  0.52014009     0.10500
H766        H  0.95515363  0.93123923  0.58879560     0.11000
H767        H  0.99282350  0.90018169  0.41781485     0.11100
H768        H  0.00154664  0.89435867  0.35353299     0.11000
H769        H  0.00390385  0.94334866  0.32888004     0.11200
H770        H  0.99512363  0.94902369  0.39378755     0.10000
C771        C  0.98260947  0.11268912  0.91693257    -0.03800
C772        C  0.99699330  0.11774702  0.93107258    -0.09600
C773        C  0.99980983  0.11817442  0.97013038    -0.17200
C774        C  0.98834782  0.11352070  0.99574581     0.24900
C775        C  0.97408956  0.10820398  0.98199607    -0.18900
C776        C  0.97122016  0.10779948  0.94285645    -0.07800
C777        C  0.99122856  0.11458595  0.03602146    -0.14200
C778        C  0.99452726  0.11607146  0.06914891    -0.14000
C779        C  0.99971325  0.11842358  0.10767347     0.24800
C780        C  0.99198643  0.11150261  0.13824278    -0.19400
C781        C  0.99749527  0.11349190  0.17537851    -0.07900
C782        C  0.01081619  0.12244459  0.18236370    -0.03900
C783        C  0.01834697  0.12949657  0.15142846    -0.09200
C784        C  0.01284044  0.12748767  0.11447420    -0.16900
H785        H  0.00600115  0.12165250  0.91198683     0.11300
H786        H  0.01088822  0.12231842  0.98037481     0.10500
H787        H  0.96512175  0.10456227  0.00151872     0.10500
H788        H  0.96002894  0.10386107  0.93293734     0.11000
H789        H  0.98180084  0.10446393  0.13335857     0.11100
H790        H  0.99140693  0.10794667  0.19852782     0.11000
H791        H  0.02861170  0.13648167  0.15568631     0.11200
H792        H  0.01892614  0.13291031  0.09111389     0.10000
C793        C  0.99675533  0.11645056  0.67985255    -0.03800
C794        C  0.00065440  0.12873349  0.65539987    -0.09600
C795        C  0.00588414  0.12580277  0.61861733    -0.17200
C796        C  0.00725246  0.11057580  0.60557591     0.24900
C797        C  0.00344240  0.09824803  0.62966074    -0.18900
C798        C  0.99825298  0.10115399  0.66663476    -0.07800
C799        C  0.01239696  0.10777019  0.56730636    -0.14200
C800        C  0.01658635  0.10642627  0.53481797    -0.14000
C801        C  0.02143530  0.10603427  0.49571396     0.24800
C802        C  0.01233878  0.09858419  0.46834984    -0.19400
C803        C  0.01646937  0.09924653  0.42997386    -0.07900
C804        C  0.02976205  0.10741246  0.41848347    -0.03900
C805        C  0.03902950  0.11452941  0.44636544    -0.09200
C806        C  0.03487418  0.11385375  0.48464793    -0.16900
H807        H  0.99966616  0.14064244  0.66466768     0.11300
H808        H  0.00879057  0.13543755  0.60025807     0.10500
H809        H  0.00443072  0.08640883  0.61983761     0.10500
H810        H  0.99529007  0.09146108  0.68471894     0.11000
H811        H  0.00187302  0.09254785  0.47657038     0.11100
H812        H  0.00905376  0.09370407  0.40925513     0.11000
H813        H  0.04930231  0.12096206  0.43854323     0.11200
H814        H  0.04197478  0.11971690  0.50553043     0.10000
C815        C  0.96192556  0.07223489  0.78558549    -0.03800
C816        C  0.97422976  0.06156114  0.78548047    -0.09600
C817        C  0.97156872  0.04591900  0.77777739    -0.17200
C818        C  0.95658444  0.04061542  0.77013729     0.24900
C819        C  0.94422693  0.05112116  0.77005975    -0.18900
C820        C  0.94687483  0.06684525  0.77767679    -0.07800
C821        C  0.95417256  0.02438739  0.76224221    -0.14200
C822        C  0.95395125  0.01065875  0.75564835    -0.14000
C823        C  0.95600122  0.99441182  0.74743208     0.24800
C824        C  0.94425390  0.98359509  0.75460733    -0.19400
C825        C  0.94675103  0.96780537  0.74735457    -0.07900
C826        C  0.96104985  0.96267860  0.73289138    -0.03900
C827        C  0.97269532  0.97369442  0.72567354    -0.09200
C828        C  0.97017981  0.98937886  0.73288406    -0.16900
H829        H  0.98596084  0.06529398  0.79126192     0.11300
H830        H  0.98123950  0.03793314  0.77780988     0.10500
H831        H  0.93257522  0.04717597  0.76411083     0.10500
H832        H  0.93715680  0.07475707  0.77750671     0.11000
H833        H  0.93323291  0.98733769  0.76598453     0.11100
H834        H  0.93755619  0.95963066  0.75321460     0.11000
H835        H  0.98383736  0.97020482  0.71454686     0.11200
H836        H  0.97937762  0.99760020  0.72730819     0.10000
C837        C  0.07690019  0.13402290  0.21854647    -0.03800
C838        C  0.09078549  0.12553279  0.21686752    -0.09600
C839        C  0.10243248  0.12974995  0.19096173    -0.17200
C840        C  0.10014108  0.14233289  0.16636661     0.24900
C841        C  0.08609268  0.15032156  0.16700472    -0.18900
C842        C  0.07460761  0.14623721  0.19275969    -0.07800
C843        C  0.11218965  0.14817528  0.14195673    -0.14200
C844        C  0.11985451  0.15635166  0.12147734    -0.14000
C845        C  0.12547009  0.16905501  0.09874905     0.24800
C846        C  0.11783181  0.18327644  0.10153444    -0.19400
C847        C  0.12202923  0.19558821  0.07816905    -0.07900
C848        C  0.13401799  0.19395947  0.05154110    -0.03900
C849        C  0.14204939  0.17979849  0.04959291    -0.09200
C850        C  0.13772006  0.16735144  0.07300131    -0.16900
H851        H  0.09286263  0.11610431  0.23647532     0.11300
H852        H  0.11329623  0.12350356  0.19081759     0.10500
H853        H  0.08415964  0.16006619  0.14819375     0.10500
H854        H  0.06399855  0.15291473  0.19301047     0.11000
H855        H  0.10833823  0.18475588  0.12127888     0.11100
H856        H  0.11565442  0.20634420  0.08047055     0.11000
H857        H  0.15124217  0.17818658  0.02912148     0.11200
H858        H  0.14368745  0.15637496  0.07048382     0.10000
C859        C  0.01540119  0.15482414  0.81249290    -0.03800
C860        C  0.02997692  0.14794223  0.81843838    -0.09600
C861        C  0.04256776  0.15680453  0.83077404    -0.17200
C862        C  0.04084282  0.17269315  0.83728812     0.24900
C863        C  0.02643029  0.17969295  0.83110871    -0.18900
C864        C  0.01378697  0.17083341  0.81883012    -0.07800
C865        C  0.05377898  0.18165293  0.85122591    -0.14200
C866        C  0.06471858  0.18868373  0.86394221    -0.14000
C867        C  0.07785970  0.19654434  0.88047972     0.24800
C868        C  0.07621752  0.21141851  0.89577713    -0.19400
C869        C  0.08878508  0.21869780  0.91351569    -0.07900
C870        C  0.10318883  0.21116481  0.91633878    -0.03900
C871        C  0.10479022  0.19632964  0.90024469    -0.09200
C872        C  0.09222626  0.18909669  0.88248530    -0.16900
H873        H  0.03163508  0.13565577  0.81392060     0.11300
H874        H  0.05363132  0.15122669  0.83551975     0.10500
H875        H  0.02492533  0.19197438  0.83610110     0.10500
H876        H  0.00274584  0.17649454  0.81450773     0.11000
H877        H  0.06516133  0.21730609  0.89448439     0.11100
H878        H  0.08713531  0.23009066  0.92565652     0.11000
H879        H  0.11569452  0.19019023  0.90187981     0.11200
H880        H  0.09366399  0.17758480  0.87081580     0.10000
C881        C  0.19706337  0.22767270  0.99263911    -0.03800
C882        C  0.20533873  0.23889168  0.01336073    -0.09600
C883        C  0.22129330  0.23747893  0.01866180    -0.17200
C884        C  0.22926938  0.22482449  0.00353497     0.24900
C885        C  0.22112567  0.21338522  0.98363025    -0.18900
C886        C  0.20510914  0.21479251  0.97818654    -0.07800
C887        C  0.24584229  0.22397193  0.00787280    -0.14200
C888        C  0.25966181  0.22460544  0.01270968    -0.14000
C889        C  0.27589845  0.22687649  0.02036182     0.24800
C890        C  0.28704181  0.21662645  0.00613375    -0.19400
C891        C  0.30277385  0.21902220  0.01399373    -0.07900
C892        C  0.30751414  0.23177124  0.03596931    -0.03900
C893        C  0.29620905  0.24201125  0.04994202    -0.09200
C894        C  0.28054760  0.23954892  0.04226935    -0.16900
H895        H  0.19955140  0.24897399  0.02482131     0.11300
H896        H  0.22745519  0.24640037  0.03413519     0.10500
H897        H  0.22717828  0.20352553  0.97181309     0.10500
H898        H  0.19909361  0.20598264  0.96205074     0.11000
H899        H  0.28357834  0.20679104  0.98906432     0.11100
H900        H  0.31121241  0.21098083  0.00273816     0.11000
H901        H  0.29945062  0.25190569  0.06705470     0.11200
H902        H  0.27204643  0.24756015  0.05343178     0.10000
C903        C  0.06044199  0.16438153  0.35917853    -0.03800
C904        C  0.07570317  0.16311809  0.37288743    -0.09600
C905        C  0.08274887  0.17556146  0.39153392    -0.17200
C906        C  0.07465356  0.18942341  0.39687580     0.24900
C907        C  0.05933057  0.19064582  0.38427991    -0.18900
C908        C  0.05225337  0.17821519  0.36560604    -0.07800
C909        C  0.08234158  0.20262250  0.41341977    -0.14200
C910        C  0.08922445  0.21376347  0.42542273    -0.14000
C911        C  0.09804870  0.22700357  0.43786259     0.24800
C912        C  0.09124879  0.24171541  0.43918102    -0.19400
C913        C  0.10006021  0.25463973  0.44972310    -0.07900
C914        C  0.11582310  0.25300524  0.45898843    -0.03900
C915        C  0.12249267  0.23813720  0.45788286    -0.09200
C916        C  0.11366962  0.22526014  0.44740273    -0.16900
H917        H  0.08233360  0.15263856  0.36846828     0.11300
H918        H  0.09462149  0.17447572  0.40108790     0.10500
H919        H  0.05295275  0.20132198  0.38818931     0.10500
H920        H  0.04049567  0.17956441  0.35547533     0.11000
H921        H  0.07917534  0.24322043  0.43173248     0.11100
H922        H  0.09457258  0.26590444  0.45033925     0.11000
H923        H  0.13457369  0.23644164  0.46493808     0.11200
H924        H  0.11908209  0.21395443  0.44639165     0.10000
C925        C  0.15401557  0.27127361  0.59046441    -0.03800
C926        C  0.14189301  0.26858254  0.61630106    -0.09600
C927        C  0.14501022  0.26322287  0.65293103    -0.17200
C928        C  0.16026834  0.26047582  0.66441436     0.24900
C929        C  0.17243112  0.26308796  0.63896220    -0.18900
C930        C  0.16933720  0.26844449  0.60219408    -0.07800
C931        C  0.16329088  0.25521594  0.70253999    -0.14200
C932        C  0.16470637  0.25115282  0.73513579    -0.14000
C933        C  0.16493907  0.24683151  0.77464742     0.24800
C934        C  0.15764933  0.23319127  0.78646830    -0.19400
C935        C  0.15631896  0.22980896  0.82513635    -0.07900
C936        C  0.16225220  0.24005988  0.85259736    -0.03900
C937        C  0.17008420  0.25344975  0.84039244    -0.09200
C938        C  0.17137315  0.25682023  0.80167346    -0.16900
H939        H  0.12997215  0.27065514  0.60827571     0.11300
H940        H  0.13550049  0.26128224  0.67238186     0.10500
H941        H  0.18429594  0.26104522  0.64756264     0.10500
H942        H  0.17892760  0.27044591  0.58305487     0.11000
H943        H  0.15257946  0.22539187  0.76584247     0.11100
H944        H  0.15025547  0.21938455  0.83352438     0.11000
H945        H  0.17476950  0.26158177  0.86076094     0.11200
H946        H  0.17698958  0.26744472  0.79287780     0.10000
C947        C  0.15864456  0.28803926  0.35405476    -0.03800
C948        C  0.15383242  0.27385293  0.33830188    -0.09600
C949        C  0.15406861  0.27152694  0.29900079    -0.17200
C950        C  0.15915948  0.28328035  0.27463696     0.24900
C951        C  0.16421553  0.29736540  0.29002572    -0.18900
C952        C  0.16395332  0.29974234  0.32942360    -0.07800
C953        C  0.15864636  0.28088874  0.23396768    -0.14200
C954        C  0.15720359  0.27783459  0.20060534    -0.14000
C955        C  0.15417432  0.27277568  0.16211891     0.24800
C956        C  0.16274098  0.27848823  0.13133633    -0.19400
C957        C  0.15975533  0.27313647  0.09437719    -0.07900
C958        C  0.14820515  0.26193105  0.08777918    -0.03900
C959        C  0.13963951  0.25638602  0.11891224    -0.09200
C960        C  0.14258077  0.26178004  0.15561065    -0.16900
H961        H  0.14962392  0.26460686  0.35630482     0.11300
H962        H  0.15008601  0.26058604  0.28756509     0.10500
H963        H  0.16816540  0.30658316  0.27157278     0.10500
H964        H  0.16773235  0.31079812  0.34054590     0.11000
H965        H  0.17177016  0.28698802  0.13590149     0.11100
H966        H  0.16660923  0.27759331  0.07110300     0.11000
H967        H  0.13065710  0.24778950  0.11497616     0.11200
H968        H  0.13585440  0.25725096  0.17905565     0.10000
C969        C  0.35310089  0.26828702  0.93837495    -0.03800
C970        C  0.33794695  0.27070885  0.92501257    -0.09600
C971        C  0.33539404  0.27533724  0.88747538    -0.17200
C972        C  0.34794142  0.27761445  0.86301102     0.24900
C973        C  0.36304026  0.27542779  0.87623035    -0.18900
C974        C  0.36562149  0.27080915  0.91362522    -0.07800
C975        C  0.34547165  0.28162260  0.82391143    -0.14200
C976        C  0.34451798  0.28428298  0.79045289    -0.14000
C977        C  0.34471323  0.28653100  0.75006573     0.24800
C978        C  0.34066218  0.30083471  0.73425973    -0.19400
C979        C  0.34172718  0.30311907  0.69503886    -0.07900
C980        C  0.34687809  0.29109463  0.67125595    -0.03900
C981        C  0.35070403  0.27670726  0.68746225    -0.09200
C982        C  0.34964059  0.27446832  0.72657511    -0.16900
H983        H  0.32807889  0.26879598  0.94334138     0.11300
H984        H  0.32365196  0.27694188  0.87741678     0.10500
H985        H  0.37282731  0.27710181  0.85746562     0.10500
H986        H  0.37742827  0.26900760  0.92296183     0.11000
H987        H  0.33688703  0.31026606  0.75226244     0.11100
H988        H  0.33869450  0.31432145  0.68341877     0.11000
H989        H  0.35472485  0.26721751  0.66999310     0.11200
H990        H  0.35286364  0.26337252  0.73856234     0.10000
C991        C  0.35160125  0.27221826  0.43696950    -0.03800
C992        C  0.36336337  0.27103140  0.40954895    -0.09600
C993        C  0.35998679  0.26599141  0.37283735    -0.17200
C994        C  0.34483412  0.26199896  0.36286013     0.24900
C995        C  0.33305282  0.26287392  0.39005297    -0.18900
C996        C  0.33640602  0.26795516  0.42692964    -0.07800
C997        C  0.34153353  0.25762196  0.32423056    -0.14200
C998        C  0.34032318  0.25484612  0.29079798    -0.14000
C999        C  0.34068738  0.25268479  0.25025537     0.24800
C1000       C  0.33839018  0.23802043  0.23424957    -0.19400
C1001       C  0.34004941  0.23587098  0.19504232    -0.07900
C1002       C  0.34410444  0.24837627  0.17142450    -0.03900
C1003       C  0.34607865  0.26311069  0.18778946    -0.09200
C1004       C  0.34438379  0.26522421  0.22684378    -0.16900
H1005       H  0.37517169  0.27423104  0.41625016     0.11300
H1006       H  0.36919277  0.26540569  0.35203064     0.10500
H1007       H  0.32126602  0.25984543  0.38263338     0.10500
H1008       H  0.32709711  0.26872841  0.44738536     0.11000
H1009       H  0.33561153  0.22820259  0.25212471     0.11100
H1010       H  0.33844759  0.22439236  0.18335079     0.11000
H1011       H  0.34916288  0.27300414  0.17049660     0.11200
H1012       H  0.34626893  0.27660955  0.23889314     0.10000
C1013       C  0.30805858  0.30892375  0.53958571    -0.03800
C1014       C  0.30278663  0.32247924  0.52149909    -0.09600
C1015       C  0.28692740  0.32463092  0.51427716    -0.17200
C1016       C  0.27616717  0.31330713  0.52522024     0.24900
C1017       C  0.28135382  0.29989760  0.54345828    -0.18900
C1018       C  0.29710629  0.29770617  0.55053777    -0.07800
C1019       C  0.25982653  0.31497594  0.51719803    -0.14200
C1020       C  0.24604618  0.31459308  0.51106118    -0.14000
C1021       C  0.22973870  0.31220770  0.50370424     0.24800
C1022       C  0.22432758  0.29724182  0.49623362    -0.19400
C1023       C  0.20865716  0.29466494  0.48854401    -0.07900
C1024       C  0.19804130  0.30702955  0.48828474    -0.03900
C1025       C  0.20351061  0.32203766  0.49633954    -0.09200
C1026       C  0.21926550  0.32460526  0.50390230    -0.16900
H1027       H  0.31090718  0.33131792  0.51265195     0.11300
H1028       H  0.28308456  0.33505258  0.50000818     0.10500
H1029       H  0.27319831  0.29102829  0.55201132     0.10500
H1030       H  0.30069801  0.28715236  0.56459826     0.11000
H1031       H  0.23226154  0.28752839  0.49615297     0.11100
H1032       H  0.20486315  0.28295414  0.48274082     0.11000
H1033       H  0.19565211  0.33179936  0.49643287     0.11200
H1034       H  0.22327162  0.33624461  0.50975598     0.10000
C1035       C  0.80613214  0.72999197  0.52989207    -0.03800
C1036       C  0.79804272  0.71685381  0.54281097    -0.09600
C1037       C  0.78205737  0.71546451  0.53665985    -0.17200
C1038       C  0.77396622  0.72719192  0.51761408     0.24900
C1039       C  0.78197897  0.74016211  0.50422607    -0.18900
C1040       C  0.79790755  0.74155042  0.51020043    -0.07800
C1041       C  0.75740272  0.72633635  0.51250523    -0.14200
C1042       C  0.74358054  0.72708522  0.50753061    -0.14000
C1043       C  0.72728621  0.72960945  0.50077228     0.24800
C1044       C  0.72198093  0.74457239  0.49282747    -0.19400
C1045       C  0.70627300  0.74724900  0.48589774    -0.07900
C1046       C  0.69555650  0.73498131  0.48688924    -0.03900
C1047       C  0.70096326  0.71996097  0.49505722    -0.09200
C1048       C  0.71673372  0.71729926  0.50188268    -0.16900
H1049       H  0.80401656  0.70776796  0.55810712     0.11300
H1050       H  0.77599092  0.70536844  0.54720205     0.10500
H1051       H  0.77586593  0.74932901  0.48951360     0.10500
H1052       H  0.80372161  0.75184498  0.49998635     0.11000
H1053       H  0.73001304  0.75420080  0.49190077     0.11100
H1054       H  0.70252400  0.75895175  0.47982669     0.11000
H1055       H  0.69302728  0.71026559  0.49600468     0.11200
H1056       H  0.72068461  0.70566065  0.50798041     0.10000
C1057       C  0.88581708  0.78184988  0.57650783    -0.03800
C1058       C  0.89977117  0.78592387  0.55845951    -0.09600
C1059       C  0.90828200  0.79878286  0.57068638    -0.17200
C1060       C  0.90299188  0.80774486  0.60110706     0.24900
C1061       C  0.88913455  0.80378243  0.61923539    -0.18900
C1062       C  0.88059477  0.79094578  0.60704455    -0.07800
C1063       C  0.91183709  0.82088665  0.61407697    -0.14200
C1064       C  0.91915051  0.83176431  0.62600453    -0.14000
C1065       C  0.92775860  0.84451354  0.64194090     0.24800
C1066       C  0.93354330  0.84342096  0.67891803    -0.19400
C1067       C  0.94162533  0.85581404  0.69495794    -0.07900
C1068       C  0.94401581  0.86956612  0.67428774    -0.03900
C1069       C  0.93825413  0.87054111  0.63700466    -0.09200
C1070       C  0.93019361  0.85807452  0.62094533    -0.16900
H1071       H  0.90410640  0.77919629  0.53483429     0.11300
H1072       H  0.91899805  0.80171393  0.55645553     0.10500
H1073       H  0.88493282  0.81060784  0.64286068     0.10500
H1074       H  0.86991505  0.78814209  0.62155891     0.11000
H1075       H  0.93171947  0.83301094  0.69548423     0.11100
H1076       H  0.94582853  0.85467960  0.72377808     0.11000
H1077       H  0.93987795  0.88095718  0.62037432     0.11200
H1078       H  0.92576036  0.85906022  0.59228654     0.10000
C1079       C  0.64490712  0.77977749  0.09154315    -0.03800
C1080       C  0.63760908  0.78681769  0.12275390    -0.09600
C1081       C  0.64038510  0.78153849  0.15950867    -0.17200
C1082       C  0.65049178  0.76916873  0.16575155     0.24900
C1083       C  0.65774692  0.76196108  0.13494434    -0.18900
C1084       C  0.65496299  0.76722801  0.09796356    -0.07800
C1085       C  0.65335966  0.76417605  0.20403301    -0.14200
C1086       C  0.65471910  0.76127345  0.23730911    -0.14000
C1087       C  0.65513035  0.75904595  0.27773582     0.24800
C1088       C  0.66350682  0.74679171  0.29364493    -0.19400
C1089       C  0.66338677  0.74446804  0.33293582    -0.07900
C1090       C  0.65498155  0.75447284  0.35673735    -0.03900
C1091       C  0.64680437  0.76689250  0.34050984    -0.09200
C1092       C  0.64683328  0.76910862  0.30125412    -0.16900
H1093       H  0.62979447  0.79649027  0.11885299     0.11300
H1094       H  0.63470323  0.78718642  0.18314802     0.10500
H1095       H  0.66559519  0.75236091  0.13951031     0.10500
H1096       H  0.66075944  0.76158753  0.07451700     0.11000
H1097       H  0.66997463  0.73894486  0.27568653     0.11100
H1098       H  0.66980773  0.73482391  0.34467957     0.11000
H1099       H  0.64013192  0.77470780  0.35808654     0.11200
H1100       H  0.64028413  0.77861417  0.28920571     0.10000
C1101       C  0.65904407  0.79912599  0.85622883    -0.03800
C1102       C  0.66851044  0.78663613  0.84532185    -0.09600
C1103       C  0.67018421  0.78277512  0.80697996    -0.17200
C1104       C  0.66245447  0.79135457  0.77910012     0.24900
C1105       C  0.65326931  0.80397194  0.78964688    -0.18900
C1106       C  0.65158363  0.80785834  0.82789336    -0.07800
C1107       C  0.66308583  0.78673753  0.73988269    -0.14200
C1108       C  0.66208308  0.78291070  0.70706744    -0.14000
C1109       C  0.65893996  0.77835283  0.66853060     0.24800
C1110       C  0.64363694  0.77562787  0.65747902    -0.19400
C1111       C  0.64027749  0.77108802  0.62038626    -0.07900
C1112       C  0.65219967  0.76920023  0.59362301    -0.03900
C1113       C  0.66758179  0.77207008  0.60484442    -0.09200
C1114       C  0.67092345  0.77661713  0.64213569    -0.16900
H1115       H  0.67436656  0.77965254  0.86642783     0.11300
H1116       H  0.67724760  0.77292282  0.79915616     0.10500
H1117       H  0.64715036  0.81063121  0.76832722     0.10500
H1118       H  0.64416033  0.81749214  0.83528950     0.11000
H1119       H  0.63426938  0.77695550  0.67763890     0.11100
H1120       H  0.62832018  0.76897008  0.61276391     0.11000
H1121       H  0.67701953  0.77067602  0.58494624     0.11200
H1122       H  0.68282029  0.77871222  0.65038815     0.10000
C1123       C  0.84473050  0.78819926  0.16816602    -0.03800
C1124       C  0.83966477  0.79986442  0.19312531    -0.09600
C1125       C  0.83969234  0.79734739  0.23240660    -0.17200
C1126       C  0.84478592  0.78317212  0.24713164     0.24900
C1127       C  0.84959133  0.77145157  0.22246400    -0.18900
C1128       C  0.84955229  0.77391620  0.18332395    -0.07800
C1129       C  0.84569110  0.78065127  0.28746442    -0.14200
C1130       C  0.84742707  0.77746920  0.32052110    -0.14000
C1131       C  0.85047814  0.77244247  0.35876520     0.24800
C1132       C  0.86162593  0.76100052  0.36521896    -0.19400
C1133       C  0.86444911  0.75567151  0.40198009    -0.07900
C1134       C  0.85618750  0.76176278  0.43296357    -0.03900
C1135       C  0.84512955  0.77341281  0.42632452    -0.09200
C1136       C  0.84226883  0.77868679  0.38938783    -0.16900
H1137       H  0.83590028  0.81098562  0.18235836     0.11300
H1138       H  0.83596907  0.80651582  0.25126479     0.10500
H1139       H  0.85358959  0.76044972  0.23353245     0.10500
H1140       H  0.85356685  0.76470223  0.16498231     0.11000
H1141       H  0.86805542  0.75608799  0.34174867     0.11100
H1142       H  0.87306093  0.74671720  0.40609077     0.11000
H1143       H  0.83854556  0.77827957  0.44956163     0.11200
H1144       H  0.83359802  0.78754048  0.38469909     0.10000
C1145       C  0.84133622  0.74256067  0.66912436    -0.03800
C1146       C  0.84697340  0.73234884  0.69703801    -0.09600
C1147       C  0.84520363  0.73574684  0.73556560    -0.17200
C1148       C  0.83776492  0.74936980  0.74684925     0.24900
C1149       C  0.83172754  0.75940359  0.71934952    -0.18900
C1150       C  0.83346209  0.75601655  0.68072767    -0.07800
C1151       C  0.83745772  0.75355805  0.78643564    -0.14200
C1152       C  0.83870044  0.75727444  0.81931174    -0.14000
C1153       C  0.84192404  0.76205952  0.85769773     0.24800
C1154       C  0.83023223  0.76234886  0.88519036    -0.19400
C1155       C  0.83355526  0.76729577  0.92218322    -0.07900
C1156       C  0.84864174  0.77197550  0.93209639    -0.03900
C1157       C  0.86030401  0.77149922  0.90428976    -0.09200
C1158       C  0.85695246  0.76659860  0.86743272    -0.16900
H1159       H  0.85307055  0.72188632  0.68913878     0.11300
H1160       H  0.84999846  0.72793116  0.75655681     0.10500
H1161       H  0.82602547  0.77003312  0.72772569     0.10500
H1162       H  0.82899628  0.76412395  0.65999830     0.11000
H1163       H  0.81855254  0.75885079  0.87799770     0.11100
H1164       H  0.82432058  0.76752960  0.94292162     0.11000
H1165       H  0.87201983  0.77505540  0.91088151     0.11200
H1166       H  0.86609727  0.76642640  0.84641970     0.10000
C1167       C  0.80484419  0.80739326  0.03644892    -0.03800
C1168       C  0.79388989  0.79547198  0.04119578    -0.09600
C1169       C  0.77815814  0.79814218  0.03438131    -0.17200
C1170       C  0.77302635  0.81275804  0.02269474     0.24900
C1171       C  0.78381587  0.82472251  0.01781175    -0.18900
C1172       C  0.79961294  0.82207015  0.02461523    -0.07800
C1173       C  0.75668261  0.81530039  0.01597910    -0.14200
C1174       C  0.74282873  0.81627545  0.01128675    -0.14000
C1175       C  0.72616492  0.81593436  0.00688209     0.24800
C1176       C  0.71863325  0.82577912  0.98114411    -0.19400
C1177       C  0.70256499  0.82464774  0.97565074    -0.07900
C1178       C  0.69382689  0.81358526  0.99572300    -0.03900
C1179       C  0.70148055  0.80403768  0.02216703    -0.09200
C1180       C  0.71747014  0.80521274  0.02765061    -0.16900
H1181       H  0.79746158  0.78403583  0.05023781     0.11300
H1182       H  0.76997309  0.78877279  0.03829546     0.10500
H1183       H  0.78002789  0.83609715  0.00879555     0.10500
H1184       H  0.80771138  0.83150199  0.02069545     0.11000
H1185       H  0.72520627  0.83412301  0.96481971     0.11100
H1186       H  0.69706994  0.83210192  0.95493352     0.11000
H1187       H  0.69515750  0.79539271  0.03813045     0.11200
H1188       H  0.72310535  0.79752322  0.04764651     0.10000
C1189       C  0.86755042  0.83924093  0.96672583    -0.03800
C1190       C  0.87151900  0.83629859  0.92868980    -0.09600
C1191       C  0.87767888  0.84803802  0.90596776    -0.17200
C1192       C  0.87994100  0.86288918  0.92082182     0.24900
C1193       C  0.87526747  0.86615543  0.95799209    -0.18900
C1194       C  0.86903910  0.85442403  0.98078669    -0.07800
C1195       C  0.88851329  0.87414286  0.89914063    -0.14200
C1196       C  0.89711881  0.88214824  0.88063247    -0.14000
C1197       C  0.90871619  0.88976140  0.85792946     0.24800
C1198       C  0.92422490  0.88930017  0.86936459    -0.19400
C1199       C  0.93586472  0.89462638  0.84512908    -0.07900
C1200       C  0.93215768  0.90042305  0.80891304    -0.03900
C1201       C  0.91647013  0.90156991  0.79842482    -0.09200
C1202       C  0.90483434  0.89623177  0.82276781    -0.16900
H1203       H  0.87052727  0.82475269  0.91697071     0.11300
H1204       H  0.88130102  0.84534930  0.87729333     0.10500
H1205       H  0.87703585  0.87758461  0.96987365     0.10500
H1206       H  0.86618451  0.85705288  0.00998922     0.11000
H1207       H  0.92738422  0.88425210  0.89643362     0.11100
H1208       H  0.94780490  0.89355549  0.85411627     0.11000
H1209       H  0.91321895  0.90594374  0.77074840     0.11200
H1210       H  0.89287906  0.89658341  0.81352168     0.10000
C1211       C  0.98507715  0.87960869  0.20462459    -0.03800
C1212       C  0.98691122  0.86391202  0.19490155    -0.09600
C1213       C  0.97414663  0.85504792  0.18365123    -0.17200
C1214       C  0.95939518  0.86172399  0.18210009     0.24900
C1215       C  0.95744286  0.87727525  0.19208100    -0.18900
C1216       C  0.97017731  0.88616548  0.20324803    -0.07800
C1217       C  0.94634812  0.85284085  0.16888482    -0.14200
C1218       C  0.93544382  0.84583739  0.15610543    -0.14000
C1219       C  0.92262985  0.83792499  0.13852693     0.24800
C1220       C  0.90771758  0.83904409  0.15382936    -0.19400
C1221       C  0.89520532  0.83191041  0.13556783    -0.07900
C1222       C  0.89746309  0.82366713  0.10158735    -0.03900
C1223       C  0.91252689  0.82247399  0.08672375    -0.09200
C1224       C  0.92500270  0.82952963  0.10511091    -0.16900
H1225       H  0.99821847  0.85851748  0.19566191     0.11300
H1226       H  0.97580715  0.84303462  0.17583238     0.10500
H1227       H  0.94609201  0.88258055  0.19086519     0.10500
H1228       H  0.96835503  0.89819268  0.21064493     0.11000
H1229       H  0.90573455  0.84556684  0.17961485     0.11100
H1230       H  0.88374685  0.83308178  0.14764728     0.11000
H1231       H  0.91466798  0.81617135  0.06070155     0.11200
H1232       H  0.93648048  0.82860845  0.09296248     0.10000
C1233       C  0.51001387  0.88165129  0.81998807    -0.03800
C1234       C  0.50817343  0.86571373  0.82698656    -0.09600
C1235       C  0.52075573  0.85674808  0.83898476    -0.17200
C1236       C  0.53529461  0.86359875  0.84411537     0.24900
C1237       C  0.53721217  0.87942833  0.83725200    -0.18900
C1238       C  0.52468507  0.88839801  0.82526640    -0.07800
C1239       C  0.54826930  0.85455033  0.85692282    -0.14200
C1240       C  0.55951265  0.84774817  0.86844671    -0.14000
C1241       C  0.57318331  0.84050618  0.88360414     0.24800
C1242       C  0.58708935  0.84879050  0.88525712    -0.19400
C1243       C  0.60015164  0.84221866  0.90226904    -0.07900
C1244       C  0.59946142  0.82724857  0.91791624    -0.03900
C1245       C  0.58553449  0.81884922  0.91519206    -0.09200
C1246       C  0.57247968  0.82546250  0.89821101    -0.16900
H1247       H  0.49703399  0.86017942  0.82317984     0.11300
H1248       H  0.51913978  0.84450217  0.84431882     0.10500
H1249       H  0.54840370  0.88485617  0.84123519     0.10500
H1250       H  0.52650256  0.90062636  0.82016725     0.11000
H1251       H  0.58775300  0.86045559  0.87406315     0.11100
H1252       H  0.61067951  0.84898983  0.90390050     0.11000
H1253       H  0.58460484  0.80731044  0.92699032     0.11200
H1254       H  0.56176724  0.81895512  0.89712562     0.10000
C1255       C  0.44693780  0.16738095  0.67286964    -0.03800
C1256       C  0.44433589  0.18119733  0.69307069    -0.09600
C1257       C  0.43692853  0.19374481  0.67582038    -0.17200
C1258       C  0.43203085  0.19276326  0.63806624     0.24900
C1259       C  0.43468148  0.17912945  0.61751734    -0.18900
C1260       C  0.44207590  0.16650348  0.63479041    -0.07800
C1261       C  0.42399958  0.20567523  0.62102440    -0.14200
C1262       C  0.41696273  0.21665299  0.60857876    -0.14000
C1263       C  0.40804856  0.22970904  0.59523835     0.24800
C1264       C  0.39217567  0.22803920  0.58850854    -0.19400
C1265       C  0.38337310  0.24069155  0.57636388    -0.07900
C1266       C  0.39030325  0.25527071  0.57076857    -0.03900
C1267       C  0.40628130  0.25686328  0.57759750    -0.09200
C1268       C  0.41508046  0.24415775  0.58974526    -0.16900
H1269       H  0.44784242  0.18226748  0.72245576     0.11300
H1270       H  0.43491341  0.20419358  0.69207844     0.10500
H1271       H  0.43091589  0.17820657  0.58828211     0.10500
H1272       H  0.44387325  0.15603957  0.61847351     0.11000
H1273       H  0.38657419  0.21695326  0.59279005     0.11100
H1274       H  0.37110877  0.23904771  0.57146319     0.11000
H1275       H  0.41197222  0.26791278  0.57360607     0.11200
H1276       H  0.42734969  0.24562189  0.59499712     0.10000
C1277       C  0.37025562  0.20218583  0.96345453    -0.03800
C1278       C  0.37733993  0.20616216  0.92881834    -0.09600
C1279       C  0.38267523  0.19467122  0.90419690    -0.17200
C1280       C  0.38092748  0.17902902  0.91356991     0.24900
C1281       C  0.37322526  0.17493041  0.94705125    -0.18900
C1282       C  0.36789956  0.18642957  0.97185013    -0.07800
C1283       C  0.38834954  0.16739939  0.89054425    -0.14200
C1284       C  0.39617357  0.15869199  0.87184507    -0.14000
C1285       C  0.40725803  0.14989031  0.85017307     0.24800
C1286       C  0.40398187  0.14537261  0.81285738    -0.19400
C1287       C  0.41562308  0.13891501  0.79017266    -0.07900
C1288       C  0.43072523  0.13703431  0.80449934    -0.03900
C1289       C  0.43363723  0.14081026  0.84268951    -0.09200
C1290       C  0.42199676  0.14720456  0.86527794    -0.16900
H1291       H  0.37937797  0.21816040  0.92143007     0.11300
H1292       H  0.38867189  0.19800485  0.87846987     0.10500
H1293       H  0.37185794  0.16286025  0.95470086     0.10500
H1294       H  0.36251682  0.18297735  0.99826119     0.11000
H1295       H  0.39263676  0.14744812  0.80078150     0.11100
H1296       H  0.41301607  0.13620827  0.76086123     0.11000
H1297       H  0.44511315  0.13950511  0.85464895     0.11200
H1298       H  0.42469609  0.15068017  0.89407001     0.10000
C1299       C  0.46089040  0.07374416  0.73168228    -0.03800
C1300       C  0.44648333  0.06886022  0.74603163    -0.09600
C1301       C  0.44349033  0.05306386  0.75205691    -0.17200
C1302       C  0.45482491  0.04196323  0.74367207     0.24900
C1303       C  0.46910690  0.04674869  0.72914263    -0.18900
C1304       C  0.47212832  0.06245728  0.72322158    -0.07800
C1305       C  0.45224086  0.02568342  0.75087158    -0.14200
C1306       C  0.45185890  0.01191540  0.75711580    -0.14000
C1307       C  0.45357407  0.99560363  0.76533351     0.24800
C1308       C  0.46826712  0.98981048  0.77405872    -0.19400
C1309       C  0.47025093  0.97416431  0.78280276    -0.07900
C1310       C  0.45755539  0.96394033  0.78287772    -0.03900
C1311       C  0.44281436  0.96977201  0.77357759    -0.09200
C1312       C  0.44083644  0.98553121  0.76497021    -0.16900
H1313       H  0.43759461  0.07723753  0.75287073     0.11300
H1314       H  0.43240292  0.04953244  0.76346875     0.10500
H1315       H  0.47800083  0.03831645  0.72264364     0.10500
H1316       H  0.48332964  0.06575286  0.71208163     0.11000
H1317       H  0.47822940  0.99743378  0.77431945     0.11100
H1318       H  0.48178016  0.97007749  0.78951588     0.11000
H1319       H  0.43282238  0.96220550  0.77332470     0.11200
H1320       H  0.42939700  0.98985299  0.75819287     0.10000
C1321       C  0.55359221  0.87297318  0.35342063    -0.03800
C1322       C  0.55213556  0.85768384  0.34007393    -0.09600
C1323       C  0.55969756  0.84548717  0.35850205    -0.17200
C1324       C  0.56889634  0.84835457  0.39044464     0.24900
C1325       C  0.57029620  0.86350815  0.40421311    -0.18900
C1326       C  0.56264914  0.87573308  0.38594714    -0.07800
C1327       C  0.57724896  0.83579853  0.40819286    -0.14200
C1328       C  0.58455929  0.82518222  0.42157257    -0.14000
C1329       C  0.59378475  0.81253232  0.43600383     0.24800
C1330       C  0.58722377  0.79785479  0.44128585    -0.19400
C1331       C  0.59637552  0.78548068  0.45388560    -0.07900
C1332       C  0.61224446  0.78761855  0.46137653    -0.03900
C1333       C  0.61867784  0.80245401  0.45632804    -0.09200
C1334       C  0.60951713  0.81478604  0.44372692    -0.16900
H1335       H  0.54521764  0.85514974  0.31520505     0.11300
H1336       H  0.55852264  0.83383267  0.34751884     0.10500
H1337       H  0.57741775  0.86590022  0.42883580     0.10500
H1338       H  0.56405953  0.88736747  0.39684437     0.11000
H1339       H  0.57507382  0.79593548  0.43531734     0.11100
H1340       H  0.59105682  0.77422121  0.45744341     0.11000
H1341       H  0.63083927  0.80451793  0.46176595     0.11200
H1342       H  0.61475450  0.82606327  0.43966280     0.10000
C1343       C  0.56719082  0.90466591  0.21510830    -0.03800
C1344       C  0.56402792  0.90040591  0.17736144    -0.09600
C1345       C  0.57606473  0.89654563  0.15265292    -0.17200
C1346       C  0.59143984  0.89692712  0.16516908     0.24900
C1347       C  0.59477053  0.90192523  0.20206790    -0.18900
C1348       C  0.58273093  0.90584551  0.22685920    -0.07800
C1349       C  0.60336287  0.89019627  0.14181420    -0.14200
C1350       C  0.61173465  0.88218860  0.12268921    -0.14000
C1351       C  0.61903362  0.87007258  0.10101755     0.24800
C1352       C  0.61402576  0.85485862  0.10661557    -0.19400
C1353       C  0.61933595  0.84303229  0.08315646    -0.07900
C1354       C  0.62983538  0.84617702  0.05371063    -0.03900
C1355       C  0.63551849  0.86132978  0.04934142    -0.09200
C1356       C  0.63003050  0.87328138  0.07280025    -0.16900
H1357       H  0.55221727  0.89943170  0.16733148     0.11300
H1358       H  0.57331990  0.89257862  0.12427128     0.10500
H1359       H  0.60660703  0.90213617  0.21221555     0.10500
H1360       H  0.58556586  0.90908540  0.25571455     0.11000
H1361       H  0.60553934  0.85221137  0.12829290     0.11100
H1362       H  0.61482445  0.83144724  0.08726431     0.11000
H1363       H  0.64350288  0.86405708  0.02664157     0.11200
H1364       H  0.63395107  0.88503790  0.06811978     0.10000
C1365       C  0.49939641  0.91969573  0.18438217    -0.03800
C1366       C  0.49909692  0.90783635  0.15704935    -0.09600
C1367       C  0.49370487  0.91074800  0.12037813    -0.17200
C1368       C  0.48846499  0.92551600  0.11037513     0.24900
C1369       C  0.48851854  0.93738450  0.13744155    -0.18900
C1370       C  0.49396519  0.93450458  0.17424976    -0.07800
C1371       C  0.48364728  0.92838698  0.07184847    -0.14200
C1372       C  0.48064869  0.92935270  0.03847961    -0.14000
C1373       C  0.47842373  0.92885406  0.99796507     0.24800
C1374       C  0.49068488  0.92421426  0.97472194    -0.19400
C1375       C  0.48854541  0.92274471  0.93561188    -0.07900
C1376       C  0.47405691  0.92588295  0.91903725    -0.03900
C1377       C  0.46181430  0.93074069  0.94254007    -0.09200
C1378       C  0.46399512  0.93220082  0.98178667    -0.16900
H1379       H  0.50322411  0.89632616  0.16382289     0.11300
H1380       H  0.49378173  0.90148795  0.09964591     0.10500
H1381       H  0.48453408  0.94888105  0.12999654     0.10500
H1382       H  0.49402679  0.94387389  0.19464990     0.11000
H1383       H  0.50188002  0.92151364  0.98692339     0.11100
H1384       H  0.49821721  0.91897495  0.91842440     0.11000
H1385       H  0.45052445  0.93324543  0.93068467     0.11200
H1386       H  0.45439114  0.93572815  0.99952264     0.10000
C1387       C  0.51715188  0.92712337  0.41882661    -0.03800
C1388       C  0.52942600  0.93097597  0.44334631    -0.09600
C1389       C  0.52691057  0.93229991  0.48241525    -0.17200
C1390       C  0.51211138  0.92986462  0.49737510     0.24900
C1391       C  0.49979759  0.92628512  0.47313436    -0.18900
C1392       C  0.50227931  0.92492098  0.43414134    -0.07800
C1393       C  0.50962245  0.93015237  0.53769966    -0.14200
C1394       C  0.50694448  0.92912477  0.57114841    -0.14000
C1395       C  0.50304413  0.92625503  0.61017406     0.24800
C1396       C  0.49968140  0.93849580  0.63485390    -0.19400
C1397       C  0.49506915  0.93543228  0.67219033    -0.07900
C1398       C  0.49370765  0.92006964  0.68510170    -0.03900
C1399       C  0.49737583  0.90789405  0.66019366    -0.09200
C1400       C  0.50200944  0.91098183  0.62304960    -0.16900
H1401       H  0.54100955  0.93271213  0.43244588     0.11300
H1402       H  0.53654183  0.93498405  0.50098558     0.10500
H1403       H  0.48831227  0.92429502  0.48445425     0.10500
H1404       H  0.49258029  0.92195467  0.41606887     0.11000
H1405       H  0.50039698  0.95036860  0.62509954     0.11100
H1406       H  0.49226424  0.94504656  0.69065071     0.11000
H1407       H  0.49645904  0.89594456  0.66921605     0.11200
H1408       H  0.50455178  0.90142342  0.60415401     0.10000
C1409       C  0.39899719  0.21227235  0.10197464    -0.03800
C1410       C  0.41355880  0.21150229  0.08421661    -0.09600
C1411       C  0.42549673  0.20278687  0.10005674    -0.17200
C1412       C  0.42312548  0.19471519  0.13389123     0.24900
C1413       C  0.40879035  0.19560167  0.15231117    -0.18900
C1414       C  0.39676098  0.20435267  0.13644433    -0.07800
C1415       C  0.43548084  0.18542573  0.14896057    -0.14200
C1416       C  0.44651337  0.17801320  0.15928264    -0.14000
C1417       C  0.46018265  0.16973141  0.17060767     0.24800
C1418       C  0.46945923  0.17558374  0.19976162    -0.19400
C1419       C  0.48275703  0.16763164  0.21097136    -0.07900
C1420       C  0.48695887  0.15366668  0.19318063    -0.03900
C1421       C  0.47767844  0.14796555  0.16348814    -0.09200
C1422       C  0.46436755  0.15598122  0.15225748    -0.16900
H1423       H  0.41569426  0.21745124  0.05768334     0.11300
H1424       H  0.43655442  0.20220767  0.08564121     0.10500
H1425       H  0.40686249  0.18940440  0.17861140     0.10500
H1426       H  0.38568072  0.20470422  0.15074550     0.11000
H1427       H  0.46637910  0.18627021  0.21395593     0.11100
H1428       H  0.48965546  0.17235457  0.23387414     0.11000
H1429       H  0.48063669  0.13728415  0.14915620     0.11200
H1430       H  0.45730777  0.15142148  0.12943009     0.10000
C1431       C  0.52703581  0.11035275  0.10360829    -0.03800
C1432       C  0.51580952  0.09947213  0.09236724    -0.09600
C1433       C  0.51217874  0.09752365  0.05393852    -0.17200
C1434       C  0.51967683  0.10644861  0.02634791     0.24900
C1435       C  0.53098803  0.11715152  0.03725939    -0.18900
C1436       C  0.53468688  0.11906586  0.07556152    -0.07800
C1437       C  0.51516746  0.10543268  0.98709075    -0.14200
C1438       C  0.51122339  0.10619849  0.95431423    -0.14000
C1439       C  0.50635662  0.10926583  0.91597080     0.24800
C1440       C  0.50427212  0.12461137  0.90447874    -0.19400
C1441       C  0.49941713  0.12794878  0.86763371    -0.07900
C1442       C  0.49658165  0.11596176  0.84152699    -0.03900
C1443       C  0.49871565  0.10051976  0.85322453    -0.09200
C1444       C  0.50357794  0.09719842  0.89030542    -0.16900
H1445       H  0.50970284  0.09261578  0.11327487     0.11300
H1446       H  0.50332422  0.08928070  0.04582549     0.10500
H1447       H  0.53677010  0.12422083  0.01618824     0.10500
H1448       H  0.54329437  0.12762552  0.08325420     0.11000
H1449       H  0.50636758  0.13403878  0.92410235     0.11100
H1450       H  0.49787672  0.13995579  0.85964219     0.11000
H1451       H  0.49658019  0.09103905  0.83382269     0.11200
H1452       H  0.50513155  0.08526331  0.89894602     0.10000
C1453       C  0.48279798  0.11463625  0.60457729    -0.03800
C1454       C  0.47071603  0.11212458  0.57850284    -0.09600
C1455       C  0.47351855  0.11283542  0.53945847    -0.17200
C1456       C  0.48841042  0.11602339  0.52598356     0.24900
C1457       C  0.50055879  0.11825699  0.55168025    -0.18900
C1458       C  0.49779099  0.11757029  0.59070400    -0.07800
C1459       C  0.49116946  0.11752001  0.48588702    -0.14200
C1460       C  0.49389412  0.11934046  0.45264181    -0.14000
C1461       C  0.49796931  0.12213059  0.41365591     0.24800
C1462       C  0.50704971  0.13499281  0.40446752    -0.19400
C1463       C  0.51184098  0.13737002  0.36711701    -0.07900
C1464       C  0.50753449  0.12694564  0.33831285    -0.03900
C1465       C  0.49803330  0.11427580  0.34752396    -0.09200
C1466       C  0.49334107  0.11184686  0.38508664    -0.16900
H1467       H  0.45904406  0.10990282  0.58824611     0.11300
H1468       H  0.46402666  0.11111845  0.51979862     0.10500
H1469       H  0.51213056  0.12075712  0.54156115     0.10500
H1470       H  0.50734618  0.11958959  0.60998223     0.11000
H1471       H  0.51066726  0.14304361  0.42631494     0.11100
H1472       H  0.51907625  0.14728665  0.36085718     0.11000
H1473       H  0.49460394  0.10603791  0.32594343     0.11200
H1474       H  0.48630990  0.10184478  0.39192612     0.10000
C1475       C  0.53558719  0.96513864  0.28787817    -0.03800
C1476       C  0.54983391  0.97038304  0.27333392    -0.09600
C1477       C  0.55247472  0.98624928  0.26761613    -0.17200
C1478       C  0.54094441  0.99707797  0.27645535     0.24900
C1479       C  0.52677626  0.99193883  0.29097080    -0.18900
C1480       C  0.52410217  0.97613889  0.29660098    -0.07800
C1481       C  0.54339323  0.01345552  0.27038775    -0.14200
C1482       C  0.54421385  0.02730565  0.26567590    -0.14000
C1483       C  0.54366082  0.04389043  0.26023644     0.24800
C1484       C  0.53231187  0.05259464  0.27884103    -0.19400
C1485       C  0.53086198  0.06845856  0.27173733    -0.07900
C1486       C  0.54075135  0.07592974  0.24579456    -0.03900
C1487       C  0.55244143  0.06719708  0.22802398    -0.09200
C1488       C  0.55385481  0.05127691  0.23515497    -0.16900
H1489       H  0.55891768  0.96223777  0.26635174     0.11300
H1490       H  0.56348705  0.99005725  0.25629655     0.10500
H1491       H  0.51774657  0.00016550  0.29790119     0.10500
H1492       H  0.51302439  0.97255367  0.30794418     0.11000
H1493       H  0.52434250  0.04704729  0.29828920     0.11100
H1494       H  0.52175824  0.07480319  0.28599099     0.11000
H1495       H  0.56021973  0.07257036  0.20786608     0.11200
H1496       H  0.56267871  0.04468279  0.22051312     0.10000
C1497       C  0.94542009  0.66709799  0.16752146    -0.03800
C1498       C  0.93029286  0.66583304  0.15299959    -0.09600
C1499       C  0.92326411  0.67839178  0.13475978    -0.17200
C1500       C  0.93121912  0.69240978  0.13062271     0.24900
C1501       C  0.94641999  0.69368135  0.14412783    -0.18900
C1502       C  0.95348928  0.68111894  0.16240632    -0.07800
C1503       C  0.92346684  0.70560508  0.11405659    -0.14200
C1504       C  0.91623479  0.71645243  0.10155629    -0.14000
C1505       C  0.90686001  0.72917351  0.08809119     0.24800
C1506       C  0.91287386  0.74422213  0.08700195    -0.19400
C1507       C  0.90355487  0.75660789  0.07529950    -0.07900
C1508       C  0.88803456  0.75412949  0.06461768    -0.03900
C1509       C  0.88213915  0.73894451  0.06552942    -0.09200
C1510       C  0.89149033  0.72657998  0.07714554    -0.16900
H1511       H  0.92374464  0.65523566  0.15642301     0.11300
H1512       H  0.91149602  0.67725060  0.12449347     0.10500
H1513       H  0.95270785  0.70446554  0.14116405     0.10500
H1514       H  0.96514138  0.68249725  0.17322558     0.11000
H1515       H  0.92472690  0.74640836  0.09550067     0.11100
H1516       H  0.90846520  0.76814194  0.07495935     0.11000
H1517       H  0.87027504  0.73661603  0.05742081     0.11200
H1518       H  0.88667637  0.71500178  0.07793146     0.10000
C1519       C  0.86752085  0.69436937  0.47121405    -0.03800
C1520       C  0.86286984  0.67910455  0.47912914    -0.09600
C1521       C  0.86772149  0.66688260  0.45567067    -0.17200
C1522       C  0.87699509  0.66992832  0.42385819     0.24900
C1523       C  0.88090761  0.68521875  0.41495316    -0.18900
C1524       C  0.87629392  0.69732301  0.43850715    -0.07800
C1525       C  0.88394473  0.65765745  0.40193807    -0.14200
C1526       C  0.89226783  0.64982401  0.38221467    -0.14000
C1527       C  0.90455760  0.64403066  0.35843091     0.24800
C1528       C  0.91897915  0.65132743  0.36036853    -0.19400
C1529       C  0.93063636  0.64747025  0.33477768    -0.07900
C1530       C  0.92814860  0.63615332  0.30678001    -0.03900
C1531       C  0.91388111  0.62829583  0.30591867    -0.09200
C1532       C  0.90207066  0.63232087  0.33150722    -0.16900
H1533       H  0.85628580  0.67655255  0.50450682     0.11300
H1534       H  0.86471980  0.65508879  0.46305834     0.10500
H1535       H  0.88812345  0.68773974  0.39058113     0.10500
H1536       H  0.88003595  0.70898715  0.43188338     0.11000
H1537       H  0.92106131  0.66041574  0.38093911     0.11100
H1538       H  0.94154617  0.65362272  0.33637584     0.11000
H1539       H  0.91165098  0.61957540  0.28454518     0.11200
H1540       H  0.89091916  0.62664436  0.32957355     0.10000
C1541       C  0.96224583  0.46152445  0.28354163    -0.03800
C1542       C  0.95087092  0.46984694  0.30360950    -0.09600
C1543       C  0.94918035  0.48588906  0.29833042    -0.17200
C1544       C  0.95877311  0.49385263  0.27281757     0.24900
C1545       C  0.96990122  0.48558838  0.25227377    -0.18900
C1546       C  0.97163363  0.46961271  0.25755216    -0.07800
C1547       C  0.95763886  0.51051797  0.26830989    -0.14200
C1548       C  0.95766803  0.52445843  0.26412558    -0.14000
C1549       C  0.95884310  0.54109521  0.25905408     0.24800
C1550       C  0.97190361  0.54898640  0.27248169    -0.19400
C1551       C  0.97344676  0.56496087  0.26675900    -0.07900
C1552       C  0.96196752  0.57340699  0.24727779    -0.03900
C1553       C  0.94878761  0.56542636  0.23413711    -0.09200
C1554       C  0.94723918  0.54940780  0.24004042    -0.16900
H1555       H  0.94351558  0.46403208  0.32398457     0.11300
H1556       H  0.94053469  0.49210325  0.31452285     0.10500
H1557       H  0.97742251  0.49154184  0.23248035     0.10500
H1558       H  0.98051801  0.46363123  0.24162631     0.11000
H1559       H  0.98100546  0.54275392  0.28712279     0.11100
H1560       H  0.98379608  0.57064852  0.27707159     0.11000
H1561       H  0.93976424  0.57152102  0.21891025     0.11200
H1562       H  0.93707516  0.54348626  0.22938561     0.10000
C1563       C  0.01813543  0.38394612  0.32572681    -0.03800
C1564       C  0.02176142  0.36945498  0.30971653    -0.09600
C1565       C  0.03497341  0.36132534  0.32126604    -0.17200
C1566       C  0.04481763  0.36753101  0.34892779     0.24900
C1567       C  0.04134888  0.38196589  0.36493875    -0.18900
C1568       C  0.02811761  0.39011766  0.35346874    -0.07800
C1569       C  0.05821101  0.35890272  0.36159173    -0.14200
C1570       C  0.06906642  0.35148479  0.37345406    -0.14000
C1571       C  0.08149404  0.34248890  0.38992309     0.24800
C1572       C  0.07979579  0.33638566  0.42645753    -0.19400
C1573       C  0.09178013  0.32788126  0.44311584    -0.07900
C1574       C  0.10575330  0.32533290  0.42354662    -0.03900
C1575       C  0.10734435  0.33139290  0.38664658    -0.09200
C1576       C  0.09528325  0.33989848  0.36996204    -0.16900
H1577       H  0.01435528  0.36435085  0.28830834     0.11300
H1578       H  0.03746568  0.35015370  0.30872592     0.10500
H1579       H  0.04882946  0.38689159  0.38646539     0.10500
H1580       H  0.02570536  0.40123813  0.36633317     0.11000
H1581       H  0.06921278  0.33829106  0.44224670     0.11100
H1582       H  0.09015392  0.32347318  0.47159792     0.11000
H1583       H  0.11794780  0.32969496  0.37083867     0.11200
H1584       H  0.09676250  0.34454754  0.34164880     0.10000
C1585       C  0.89949948  0.71126280  0.60565312    -0.03800
C1586       C  0.91328231  0.71939614  0.61313075    -0.09600
C1587       C  0.92571340  0.71201447  0.63106170    -0.17200
C1588       C  0.92452763  0.69643889  0.64165429     0.24900
C1589       C  0.91081348  0.68831679  0.63468912    -0.18900
C1590       C  0.89837159  0.69566685  0.61689849    -0.07800
C1591       C  0.93746774  0.68859758  0.65873165    -0.14200
C1592       C  0.94812672  0.68141871  0.67206691    -0.14000
C1593       C  0.96064184  0.67221585  0.68679834     0.24800
C1594       C  0.95903063  0.65613029  0.68934431    -0.19400
C1595       C  0.97126943  0.64706342  0.70271088    -0.07900
C1596       C  0.98533151  0.65398111  0.71355137    -0.03900
C1597       C  0.98682504  0.67017701  0.71106548    -0.09200
C1598       C  0.97453244  0.67923083  0.69783876    -0.16900
H1599       H  0.91452031  0.73139564  0.60476547     0.11300
H1600       H  0.93629881  0.71839805  0.63626280     0.10500
H1601       H  0.90978983  0.67624456  0.64266617     0.10500
H1602       H  0.88796568  0.68904724  0.61138590     0.11000
H1603       H  0.94834069  0.65058049  0.68075327     0.11100
H1604       H  0.96978836  0.63462764  0.70408908     0.11000
H1605       H  0.99750271  0.67584447  0.71920714     0.11200
H1606       H  0.97590801  0.69167330  0.69592187     0.10000
C1607       C  0.99406630  0.62423266  0.34401595    -0.03800
C1608       C  0.00729255  0.61515652  0.35097251    -0.09600
C1609       C  0.01230203  0.61249236  0.38820519    -0.17200
C1610       C  0.00415070  0.61886955  0.41875222     0.24900
C1611       C  0.99118235  0.62813587  0.41200552    -0.18900
C1612       C  0.98617147  0.63081586  0.37496900    -0.07800
C1613       C  0.00872315  0.61576483  0.45722142    -0.14200
C1614       C  0.01144195  0.61385824  0.49041803    -0.14000
C1615       C  0.01375520  0.61261693  0.53069000     0.24800
C1616       C  0.00193415  0.61711246  0.55543959    -0.19400
C1617       C  0.00438160  0.61686633  0.59460499    -0.07900
C1618       C  0.01873837  0.61215209  0.60953299    -0.03900
C1619       C  0.03044019  0.60732401  0.58444728    -0.09200
C1620       C  0.02794639  0.60755949  0.54524552    -0.16900
H1621       H  0.01363372  0.60997216  0.32774390     0.11300
H1622       H  0.02238956  0.60532523  0.39317329     0.10500
H1623       H  0.98481459  0.63315071  0.43544931     0.10500
H1624       H  0.97596918  0.63788472  0.37065694     0.11000
H1625       H  0.99090893  0.62107046  0.54443361     0.11100
H1626       H  0.99514356  0.62067893  0.61312246     0.11000
H1627       H  0.04160589  0.60362048  0.59505799     0.11200
H1628       H  0.03717196  0.60406775  0.52629671     0.10000
C1629       C  0.00393838  0.61400059  0.84602879    -0.03800
C1630       C  0.00056630  0.62583553  0.87214256    -0.09600
C1631       C  0.99604030  0.62224803  0.90910647    -0.17200
C1632       C  0.99484171  0.60680495  0.92065033     0.24900
C1633       C  0.99803492  0.59490341  0.89486218    -0.18900
C1634       C  0.00253707  0.59847148  0.85769432    -0.07800
C1635       C  0.99047642  0.60343936  0.95917307    -0.14200
C1636       C  0.98679751  0.60241252  0.99206287    -0.14000
C1637       C  0.98234272  0.60337468  0.03131860     0.24800
C1638       C  0.99058452  0.59531373  0.05925828    -0.19400
C1639       C  0.98707029  0.59752237  0.09764780    -0.07900
C1640       C  0.97525859  0.60783474  0.10846998    -0.03900
C1641       C  0.96679368  0.61555082  0.08007224    -0.09200
C1642       C  0.97035175  0.61335846  0.04182418    -0.16900
H1643       H  0.00150892  0.63789977  0.86410696     0.11300
H1644       H  0.99357903  0.63155028  0.92881708     0.10500
H1645       H  0.99714270  0.58290237  0.90352040     0.10500
H1646       H  0.00510512  0.58910647  0.83828436     0.11000
H1647       H  0.99995193  0.58761994  0.05143915     0.11100
H1648       H  0.99378043  0.59139688  0.11882828     0.11000
H1649       H  0.95766797  0.62359961  0.08740565     0.11200
H1650       H  0.96396884  0.61973617  0.02044993     0.10000
C1651       C  0.02398192  0.42148824  0.91942982    -0.03800
C1652       C  0.03615201  0.42540711  0.94423965    -0.09600
C1653       C  0.03374384  0.42570273  0.98354170    -0.17200
C1654       C  0.01915912  0.42211944  0.99845715     0.24900
C1655       C  0.00698652  0.41835501  0.97395637    -0.18900
C1656       C  0.00935381  0.41804210  0.93478524    -0.07800
C1657       C  0.01657164  0.42184825  0.03882159    -0.14200
C1658       C  0.01313041  0.42071967  0.07187350    -0.14000
C1659       C  0.00761515  0.41818756  0.10993053     0.24800
C1660       C  0.99660347  0.40662704  0.11648168    -0.19400
C1661       C  0.99095996  0.40405209  0.15303475    -0.07900
C1662       C  0.99631091  0.41296681  0.18376861    -0.03900
C1663       C  0.00740015  0.42458577  0.17700873    -0.09200
C1664       C  0.01298747  0.42720212  0.14023686    -0.16900
H1665       H  0.04755604  0.42807589  0.93333427     0.11300
H1666       H  0.04326795  0.42858828  0.00225678     0.10500
H1667       H  0.99566297  0.41551675  0.98517602     0.10500
H1668       H  0.99974243  0.41494725  0.91656293     0.11000
H1669       H  0.99233628  0.39960216  0.09325105     0.11100
H1670       H  0.98244297  0.39501316  0.15722674     0.11000
H1671       H  0.01167469  0.43169245  0.20004896     0.11200
H1672       H  0.02147189  0.43622774  0.13546316     0.10000
C1673       C  0.00640259  0.41879724  0.68345161    -0.03800
C1674       C  0.00625559  0.40713244  0.65558841    -0.09600
C1675       C  0.00158312  0.41041928  0.61858173    -0.17200
C1676       C  0.99693869  0.42538510  0.60872926     0.24900
C1677       C  0.99690271  0.43709669  0.63621821    -0.18900
C1678       C  0.00164211  0.43383618  0.67342687    -0.07800
C1679       C  0.99228227  0.42845572  0.57025071    -0.14200
C1680       C  0.98858204  0.42935340  0.53733824    -0.14000
C1681       C  0.98426705  0.42856683  0.49794735     0.24800
C1682       C  0.99185174  0.43768349  0.47087802    -0.19400
C1683       C  0.98831394  0.43601825  0.43232556    -0.07900
C1684       C  0.97711770  0.42521589  0.42046997    -0.03900
C1685       C  0.96938508  0.41631176  0.44800821    -0.09200
C1686       C  0.97297969  0.41795444  0.48642036    -0.16900
H1687       H  0.00991210  0.39545159  0.66223793     0.11300
H1688       H  0.00165124  0.40126804  0.59755894     0.10500
H1689       H  0.99330262  0.44872939  0.62886803     0.10500
H1690       H  0.00165306  0.44305836  0.69422330     0.11000
H1691       H  0.00067893  0.44587084  0.47949198     0.11100
H1692       H  0.99446940  0.44302677  0.41180968     0.11000
H1693       H  0.96077723  0.40782679  0.43983809     0.11200
H1694       H  0.96712097  0.41075741  0.50710180     0.10000
C1695       C  0.04182823  0.46229438  0.79010551    -0.03800
C1696       C  0.05531070  0.46748675  0.77162416    -0.09600
C1697       C  0.05753881  0.48330204  0.76440486    -0.17200
C1698       C  0.04638351  0.49411151  0.77580114     0.24900
C1699       C  0.03311817  0.48905481  0.79487643    -0.18900
C1700       C  0.03083413  0.47329958  0.80192956    -0.07800
C1701       C  0.04801431  0.51032331  0.76672319    -0.14200
C1702       C  0.04770479  0.52396574  0.75921220    -0.14000
C1703       C  0.04535113  0.54012374  0.75055979     0.24800
C1704       C  0.03134543  0.54482731  0.73428725    -0.19400
C1705       C  0.02844425  0.56050737  0.72767924    -0.07900
C1706       C  0.03954451  0.57178841  0.73719134    -0.03900
C1707       C  0.05373150  0.56695935  0.75291887    -0.09200
C1708       C  0.05659180  0.55121661  0.75965132    -0.16900
H1709       H  0.06399020  0.45931542  0.76217845     0.11300
H1710       H  0.06783988  0.48706313  0.74952615     0.10500
H1711       H  0.02439321  0.49728787  0.80381089     0.10500
H1712       H  0.02037821  0.46973168  0.81641905     0.11000
H1713       H  0.02254474  0.53636974  0.72717614     0.11100
H1714       H  0.01744029  0.56379300  0.71535655     0.11000
H1715       H  0.06251514  0.57535060  0.76051313     0.11200
H1716       H  0.06746467  0.54772775  0.77235689     0.10000
C1717       C  0.06102377  0.36922042  0.84405348    -0.03800
C1718       C  0.06190089  0.35505784  0.82437516    -0.09600
C1719       C  0.07031191  0.34264960  0.83921429    -0.17200
C1720       C  0.07799344  0.34415000  0.87393985     0.24900
C1721       C  0.07702553  0.35810341  0.89408662    -0.18900
C1722       C  0.06857774  0.37057530  0.87927447    -0.07800
C1723       C  0.08693869  0.33136194  0.88847856    -0.14200
C1724       C  0.09426663  0.32038183  0.89975377    -0.14000
C1725       C  0.10271914  0.30707738  0.91326621     0.24800
C1726       C  0.09651000  0.29787918  0.94217625    -0.19400
C1727       C  0.10469115  0.28504247  0.95570036    -0.07900
C1728       C  0.11924085  0.28119225  0.94046907    -0.03900
C1729       C  0.12533820  0.29042187  0.91111433    -0.09200
C1730       C  0.11712573  0.30327983  0.89764904    -0.16900
H1731       H  0.05622943  0.35359236  0.79720236     0.11300
H1732       H  0.07093576  0.33191467  0.82339759     0.10500
H1733       H  0.08290960  0.35938897  0.92105497     0.10500
H1734       H  0.06816371  0.38131978  0.89505216     0.11000
H1735       H  0.08535373  0.30066627  0.95440353     0.11100
H1736       H  0.09963903  0.27817275  0.97821235     0.11000
H1737       H  0.13648608  0.28776758  0.89870577     0.11200
H1738       H  0.12203633  0.31028313  0.87517203     0.10000
C1739       C  0.13619639  0.33841934  0.55756535    -0.03800
C1740       C  0.13643665  0.35388500  0.54493652    -0.09600
C1741       C  0.13101119  0.36581259  0.56831753    -0.17200
C1742       C  0.12539943  0.36244733  0.60465072     0.24900
C1743       C  0.12596382  0.34722803  0.61820047    -0.18900
C1744       C  0.13134330  0.33530136  0.59491017    -0.07800
C1745       C  0.11744968  0.37409965  0.62646218    -0.14200
C1746       C  0.10910132  0.38246957  0.64468365    -0.14000
C1747       C  0.09754234  0.39048034  0.66665153     0.24800
C1748       C  0.10080006  0.39529594  0.70371075    -0.19400
C1749       C  0.08890955  0.40081823  0.72699625    -0.07900
C1750       C  0.07355776  0.40144613  0.71359706    -0.03900
C1751       C  0.07056174  0.39736559  0.67565320    -0.09200
C1752       C  0.08247807  0.39190953  0.65239894    -0.16900
H1753       H  0.14006338  0.35667911  0.51634382     0.11300
H1754       H  0.13056114  0.37753490  0.55743761     0.10500
H1755       H  0.12159645  0.34446241  0.64620499     0.10500
H1756       H  0.13102349  0.32354745  0.60558156     0.11000
H1757       H  0.11238582  0.39415810  0.71515215     0.11100
H1758       H  0.09161087  0.40379961  0.75609590     0.11000
H1759       H  0.05889094  0.39769513  0.66445340     0.11200
H1760       H  0.07979562  0.38814594  0.62381795     0.10000
C1761       C  0.07012688  0.89857739  0.30536906    -0.03800
C1762       C  0.08555370  0.89780957  0.29264934    -0.09600
C1763       C  0.09716432  0.89176305  0.31613256    -0.17200
C1764       C  0.09353132  0.88653216  0.35266431     0.24900
C1765       C  0.07842330  0.88819577  0.36635892    -0.18900
C1766       C  0.06680724  0.89419516  0.34295941    -0.07800
C1767       C  0.10470557  0.87792863  0.37461915    -0.14200
C1768       C  0.11272335  0.86930587  0.39312698    -0.14000
C1769       C  0.12054397  0.85784268  0.41595114     0.24800
C1770       C  0.12190572  0.84260332  0.40278502    -0.19400
C1771       C  0.12750794  0.83095213  0.42677414    -0.07900
C1772       C  0.13184008  0.83439841  0.46434027    -0.03900
C1773       C  0.13112817  0.84988823  0.47668657    -0.09200
C1774       C  0.12545587  0.86149652  0.45271085    -0.16900
H1775       H  0.08850546  0.90107293  0.26388777     0.11300
H1776       H  0.10880473  0.89050881  0.30516281     0.10500
H1777       H  0.07545246  0.88417709  0.39455295     0.10500
H1778       H  0.05508092  0.89467174  0.35371796     0.11000
H1779       H  0.11807313  0.83960517  0.37444729     0.11100
H1780       H  0.12788771  0.81916354  0.41637884     0.11000
H1781       H  0.13427954  0.85294252  0.50546788     0.11200
H1782       H  0.12437685  0.87321326  0.46333687     0.10000
C1783       C  0.10225072  0.82143423  0.60116136    -0.03800
C1784       C  0.08721081  0.82002499  0.58611801    -0.09600
C1785       C  0.07477361  0.82787684  0.60266276    -0.17200
C1786       C  0.07713408  0.83728827  0.63445351     0.24900
C1787       C  0.09197705  0.83844992  0.65026916    -0.18900
C1788       C  0.10445029  0.83053984  0.63383808    -0.07800
C1789       C  0.06442660  0.84617884  0.64975282    -0.14200
C1790       C  0.05367751  0.85382884  0.66115876    -0.14000
C1791       C  0.04075868  0.86307861  0.67392082     0.24800
C1792       C  0.04285947  0.87874398  0.68275749    -0.19400
C1793       C  0.03034882  0.88771019  0.69517651    -0.07900
C1794       C  0.01551782  0.88112802  0.69900661    -0.03900
C1795       C  0.01349797  0.86540044  0.68977693    -0.09200
C1796       C  0.02602516  0.85646432  0.67732560    -0.16900
H1797       H  0.08508047  0.81304758  0.56113544     0.11300
H1798       H  0.06335660  0.82684068  0.59018031     0.10500
H1799       H  0.09396604  0.84568638  0.67489030     0.10500
H1800       H  0.11586412  0.83187053  0.64612319     0.33400
H1801       H  0.05417941  0.88402979  0.68012018     0.11100
H1802       H  0.03231257  0.89977952  0.70193386     0.11000
H1803       H  0.00224319  0.85998015  0.69225303     0.11200
H1804       H  0.02421884  0.84437601  0.67043557     0.10000
C1805       C  0.05467623  0.66498441  0.67917957    -0.03800
C1806       C  0.05821954  0.67848879  0.69977299    -0.09600
C1807       C  0.06584081  0.69086118  0.68234595    -0.17200
C1808       C  0.06998871  0.68999425  0.64405251     0.24900
C1809       C  0.06622201  0.67675103  0.62303968    -0.18900
C1810       C  0.05862320  0.66430782  0.64047313    -0.07800
C1811       C  0.07857030  0.70250957  0.62696435    -0.14200
C1812       C  0.08612705  0.71308499  0.61433685    -0.14000
C1813       C  0.09538673  0.72580771  0.60060098     0.24800
C1814       C  0.08891047  0.74059177  0.59714145    -0.19400
C1815       C  0.09791651  0.75298546  0.58423768    -0.07900
C1816       C  0.11357339  0.75077830  0.57462456    -0.03900
C1817       C  0.12000748  0.73588335  0.57838040    -0.09200
C1818       C  0.11096476  0.72349847  0.59125443    -0.16900
H1819       H  0.05537674  0.67939530  0.72960460     0.11300
H1820       H  0.06869816  0.70103034  0.69892209     0.10500
H1821       H  0.06936912  0.67594223  0.59336279     0.10500
H1822       H  0.05602614  0.65410016  0.62381632     0.11000
H1823       H  0.07689370  0.74255016  0.60445291     0.11100
H1824       H  0.09261177  0.76429938  0.58181168     0.11000
H1825       H  0.13201598  0.73378563  0.57129563     0.11200
H1826       H  0.11613378  0.71212554  0.59396397     0.10000
C1827       C  0.36664387  0.83554403  0.55616221    -0.03800
C1828       C  0.36945238  0.83312895  0.59502936    -0.09600
C1829       C  0.37474663  0.84527930  0.61784775    -0.17200
C1830       C  0.37731703  0.85994542  0.60209502     0.24900
C1831       C  0.37381942  0.86262575  0.56391772    -0.18900
C1832       C  0.36842823  0.85053922  0.54112792    -0.07800
C1833       C  0.38509923  0.87168518  0.62390833    -0.14200
C1834       C  0.39310980  0.88051058  0.64171608    -0.14000
C1835       C  0.40410124  0.88933261  0.66349563     0.24800
C1836       C  0.41934171  0.89079583  0.65055887    -0.19400
C1837       C  0.43073411  0.89700502  0.67426031    -0.07900
C1838       C  0.42701532  0.90177461  0.71132799    -0.03900
C1839       C  0.41146794  0.90121363  0.72312320    -0.09200
C1840       C  0.40009967  0.89495713  0.69938100    -0.16900
H1841       H  0.36818341  0.82172398  0.60741524     0.11300
H1842       H  0.37748628  0.84306007  0.64735586     0.10500
H1843       H  0.37585861  0.87389507  0.55137103     0.10500
H1844       H  0.36645940  0.85276452  0.51127249     0.11000
H1845       H  0.42257653  0.88644785  0.62284644     0.11100
H1846       H  0.44257996  0.89730444  0.66427186     0.11000
H1847       H  0.40822718  0.90475525  0.75149004     0.11200
H1848       H  0.38834868  0.89383600  0.70971980     0.10000
C1849       C  0.39767113  0.82145597  0.42362581    -0.03800
C1850       C  0.39568470  0.82891680  0.38845394    -0.09600
C1851       C  0.40794050  0.83712983  0.37186121    -0.17200
C1852       C  0.42234770  0.83794412  0.39007930     0.24900
C1853       C  0.42448372  0.83032199  0.42471999    -0.18900
C1854       C  0.41227299  0.82215556  0.44136957    -0.07800
C1855       C  0.43487010  0.84683925  0.37384325    -0.14200
C1856       C  0.44547709  0.85442505  0.36137558    -0.14000
C1857       C  0.45817585  0.86367728  0.34728503     0.24800
C1858       C  0.47285199  0.85709422  0.34232071    -0.19400
C1859       C  0.48519846  0.86612649  0.32909984    -0.07900
C1860       C  0.48304102  0.88191095  0.32062043    -0.03900
C1861       C  0.46823610  0.88840680  0.32566150    -0.09200
C1862       C  0.45592387  0.87935971  0.33889760    -0.16900
H1863       H  0.38459944  0.82864856  0.37411621     0.11300
H1864       H  0.40612628  0.84298304  0.34503780     0.10500
H1865       H  0.43555505  0.83083879  0.43912490     0.10500
H1866       H  0.41423417  0.81654392  0.46842761     0.11000
H1867       H  0.47477045  0.84498210  0.34877561     0.11100
H1868       H  0.49643064  0.86075984  0.32560978     0.11000
H1869       H  0.46616167  0.90051219  0.31950569     0.11200
H1870       H  0.44464881  0.88461794  0.34268065     0.10000
C1871       C  0.30515773  0.80317010  0.48586375    -0.03800
C1872       C  0.29960930  0.81813815  0.49399534    -0.09600
C1873       C  0.28377011  0.82068525  0.50034921    -0.17200
C1874       C  0.27327803  0.80831470  0.49873919     0.24900
C1875       C  0.27872798  0.79342332  0.49064245    -0.18900
C1876       C  0.29448801  0.79086271  0.48422249    -0.07800
C1877       C  0.25696440  0.81059792  0.50613327    -0.14200
C1878       C  0.24323784  0.81091636  0.51293382    -0.14000
C1879       C  0.22699424  0.80925829  0.52206669     0.24800
C1880       C  0.22205242  0.79605251  0.54157467    -0.19400
C1881       C  0.20636836  0.79384361  0.54953916    -0.07900
C1882       C  0.19524472  0.80483618  0.53820367    -0.03900
C1883       C  0.20029057  0.81822037  0.51900874    -0.09200
C1884       C  0.21607202  0.82039126  0.51091836    -0.16900
H1885       H  0.30749136  0.82786891  0.49537476     0.11300
H1886       H  0.27973178  0.83226888  0.50667138     0.10500
H1887       H  0.27077606  0.78373346  0.48942184     0.10500
H1888       H  0.29831488  0.77919444  0.47808901     0.11000
H1889       H  0.23033662  0.78733961  0.55035853     0.11100
H1890       H  0.20295704  0.78343348  0.56447618     0.11000
H1891       H  0.19204338  0.82689424  0.50988081     0.11200
H1892       H  0.21972268  0.83066315  0.49573169     0.10000
C1893       C  0.11112900  0.77968585  0.07309181    -0.03800
C1894       C  0.11663199  0.79501779  0.07257408    -0.09600
C1895       C  0.10704516  0.80726140  0.08333391    -0.17200
C1896       C  0.09182746  0.80440757  0.09484207     0.24900
C1897       C  0.08616244  0.78921178  0.09519715    -0.18900
C1898       C  0.09573945  0.77691088  0.08429502    -0.07800
C1899       C  0.08235704  0.81709275  0.10761202    -0.14200
C1900       C  0.07532778  0.82809815  0.11969860    -0.14000
C1901       C  0.06778280  0.84135656  0.13615379     0.24800
C1902       C  0.05987798  0.83981757  0.17053669    -0.19400
C1903       C  0.05326504  0.85276997  0.18780847    -0.07900
C1904       C  0.05444259  0.86750079  0.17090460    -0.03900
C1905       C  0.06222075  0.86892199  0.13603580    -0.09200
C1906       C  0.06889263  0.85591987  0.11884511    -0.16900
H1907       H  0.12837678  0.79757580  0.06390069     0.11300
H1908       H  0.11156542  0.81896292  0.08303364     0.10500
H1909       H  0.07440840  0.78686075  0.10418968     0.10500
H1910       H  0.09114895  0.76524806  0.08491545     0.11000
H1911       H  0.05899781  0.82862852  0.18427835     0.11100
H1912       H  0.04732799  0.85125098  0.21459632     0.11000
H1913       H  0.06336486  0.88009585  0.12238543     0.11200
H1914       H  0.07506796  0.85725641  0.09231060     0.10000
C1915       C  0.13323698  0.69674676  0.96875711    -0.03800
C1916       C  0.12886350  0.69993101  0.93109807    -0.09600
C1917       C  0.12288577  0.68821316  0.90798644    -0.17200
C1918       C  0.12118409  0.67316361  0.92212587     0.24900
C1919       C  0.12607439  0.66973762  0.95905222    -0.18900
C1920       C  0.13213540  0.68143055  0.98218931    -0.07800
C1921       C  0.11317978  0.66169944  0.89982051    -0.14200
C1922       C  0.10512816  0.65323925  0.88102868    -0.14000
C1923       C  0.09403573  0.64487905  0.85838908     0.24800
C1924       C  0.07938973  0.64163453  0.87332171    -0.19400
C1925       C  0.06769449  0.63584250  0.84988089    -0.07900
C1926       C  0.07049014  0.63324043  0.81107884    -0.03900
C1927       C  0.08551045  0.63563946  0.79681410    -0.09200
C1928       C  0.09718792  0.64150356  0.82032364    -0.16900
H1929       H  0.12950388  0.71159773  0.91994791     0.11300
H1930       H  0.11906581  0.69102308  0.87951622     0.10500
H1931       H  0.12471404  0.65816044  0.97040374     0.10500
H1932       H  0.13524615  0.67862333  0.01115407     0.11000
H1933       H  0.07679362  0.64425006  0.90269816     0.11100
H1934       H  0.05627064  0.63409442  0.86175538     0.11000
H1935       H  0.08801301  0.63383269  0.76704487     0.11200
H1936       H  0.10845717  0.64404703  0.80839757     0.10000
C1937       C  0.01585005  0.65182048  0.20108323    -0.03800
C1938       C  0.02631109  0.64521952  0.17512753    -0.09600
C1939       C  0.03979554  0.65313583  0.16463023    -0.17200
C1940       C  0.04303623  0.66776645  0.17982398     0.24900
C1941       C  0.03263220  0.67448588  0.20540706    -0.18900
C1942       C  0.01916004  0.66658090  0.21601760    -0.07800
C1943       C  0.05683861  0.67600006  0.16845401    -0.14200
C1944       C  0.06805667  0.68295662  0.15705210    -0.14000
C1945       C  0.08069990  0.69139451  0.13995840     0.24800
C1946       C  0.07914410  0.69672683  0.10271544    -0.19400
C1947       C  0.09117503  0.70486570  0.08539916    -0.07900
C1948       C  0.10508695  0.70782538  0.10497012    -0.03900
C1949       C  0.10662090  0.70242427  0.14248367    -0.09200
C1950       C  0.09447078  0.69427320  0.15988758    -0.16900
H1951       H  0.02414074  0.63388545  0.16313308     0.11300
H1952       H  0.04769841  0.64783581  0.14463980     0.10500
H1953       H  0.03493611  0.68583610  0.21720026     0.10500
H1954       H  0.01136111  0.67201639  0.23600987     0.11000
H1955       H  0.06859109  0.69457005  0.08693875     0.11100
H1956       H  0.08957799  0.70875678  0.05645183     0.11000
H1957       H  0.11717278  0.70448367  0.15829386     0.11200
H1958       H  0.09583150  0.69019431  0.18876091     0.10000
C1959       C  0.15588267  0.78849383  0.67209666    -0.03800
C1960       C  0.15176975  0.77441421  0.68944430    -0.09600
C1961       C  0.15207736  0.77291212  0.72885490    -0.17200
C1962       C  0.15651943  0.78541204  0.75157990     0.24900
C1963       C  0.16082710  0.79943535  0.73467568    -0.18900
C1964       C  0.16051468  0.80098284  0.69512436    -0.07800
C1965       C  0.15623258  0.78374602  0.79219145    -0.14200
C1966       C  0.15518493  0.78111474  0.82568099    -0.14000
C1967       C  0.15301791  0.77663634  0.86464140     0.24800
C1968       C  0.13802887  0.77458586  0.87870996    -0.19400
C1969       C  0.13577764  0.76910393  0.91556900    -0.07900
C1970       C  0.14851730  0.76559717  0.93895337    -0.03900
C1971       C  0.16355823  0.76799615  0.92486835    -0.09200
C1972       C  0.16578016  0.77343913  0.88785801    -0.16900
H1973       H  0.14810124  0.76459078  0.67260574     0.11300
H1974       H  0.14869333  0.76201660  0.74164622     0.10500
H1975       H  0.16426474  0.80919754  0.75203260     0.10500
H1976       H  0.16371765  0.81197921  0.68263455     0.11000
H1977       H  0.12806768  0.77695068  0.86093078     0.11100
H1978       H  0.12404892  0.76742389  0.92556181     0.11000
H1979       H  0.17359079  0.76536025  0.94213282     0.11200
H1980       H  0.17743847  0.77489581  0.87714642     0.10000
C1981       C  0.15193486  0.76707432  0.43873729    -0.03800
C1982       C  0.16732109  0.76624298  0.42579113    -0.09600
C1983       C  0.17052841  0.76146938  0.38864404    -0.17200
C1984       C  0.15841674  0.75737895  0.36419315     0.24900
C1985       C  0.14314006  0.75779034  0.37720799    -0.18900
C1986       C  0.13990559  0.76260678  0.41415137    -0.07800
C1987       C  0.16137193  0.75360826  0.32509196    -0.14200
C1988       C  0.16241230  0.75125899  0.29147102    -0.14000
C1989       C  0.16203856  0.74938781  0.25089941     0.24800
C1990       C  0.16446683  0.73484394  0.23447401    -0.19400
C1991       C  0.16296176  0.73293408  0.19521312    -0.07900
C1992       C  0.15891502  0.74555522  0.17193053    -0.03900
C1993       C  0.15675691  0.76017073  0.18869230    -0.09200
C1994       C  0.15831911  0.76205408  0.22787842    -0.16900
H1995       H  0.17682660  0.76965237  0.44400825     0.11300
H1996       H  0.18239932  0.76125885  0.37879595     0.10500
H1997       H  0.13367369  0.75469350  0.35850275     0.10500
H1998       H  0.12794653  0.76306631  0.42324209     0.11000
H1999       H  0.16725955  0.72493707  0.25205037     0.11100
H2000       H  0.16466810  0.72152596  0.18320758     0.11000
H2001       H  0.15365966  0.77012158  0.17160437     0.11200
H2002       H  0.15633888  0.77334983  0.24031657     0.10000
C2003       C  0.38530560  0.78042535  0.94647892    -0.03800
C2004       C  0.39846002  0.78595666  0.96583428    -0.09600
C2005       C  0.40596926  0.79949495  0.95380086    -0.17200
C2006       C  0.40048901  0.80769577  0.92220567     0.24900
C2007       C  0.38746417  0.80222447  0.90269774    -0.18900
C2008       C  0.37991857  0.78873819  0.91472252    -0.07800
C2009       C  0.40830612  0.82156010  0.90930592    -0.14200
C2010       C  0.41480563  0.83291762  0.89698042    -0.14000
C2011       C  0.42271261  0.84599763  0.88011352     0.24800
C2012       C  0.42926271  0.84454148  0.84399786    -0.19400
C2013       C  0.43699575  0.85704059  0.82733059    -0.07900
C2014       C  0.43833266  0.87129515  0.84648017    -0.03900
C2015       C  0.43167014  0.87270521  0.88276308    -0.09200
C2016       C  0.42392382  0.86013734  0.89943860    -0.16900
H2017       H  0.40288282  0.77989206  0.99045148     0.11300
H2018       H  0.41605394  0.80355422  0.96913475     0.10500
H2019       H  0.38311795  0.80839643  0.87813549     0.10500
H2020       H  0.36984486  0.78483021  0.89913272     0.11000
H2021       H  0.42840119  0.83370882  0.82865272     0.11100
H2022       H  0.44189764  0.85552561  0.79931537     0.11000
H2023       H  0.43241998  0.88350957  0.89821958     0.11200
H2024       H  0.41888758  0.86145309  0.92738300     0.10000
C2025       C  0.34356873  0.73925178  0.85508525    -0.03800
C2026       C  0.35027564  0.72954355  0.82757339    -0.09600
C2027       C  0.34892657  0.73303345  0.78900897    -0.17200
C2028       C  0.34084779  0.74623625  0.77734744     0.24900
C2029       C  0.33389222  0.75582428  0.80441582    -0.18900
C2030       C  0.33521576  0.75235340  0.84306356    -0.07800
C2031       C  0.34051263  0.75035701  0.73778834    -0.14200
C2032       C  0.34147469  0.75394142  0.70481146    -0.14000
C2033       C  0.34421515  0.75846236  0.66608950     0.24800
C2034       C  0.33191813  0.76031699  0.64057076    -0.19400
C2035       C  0.33479863  0.76506120  0.60321543    -0.07900
C2036       C  0.35003086  0.76801614  0.59105913    -0.03900
C2037       C  0.36228358  0.76596068  0.61691156    -0.09200
C2038       C  0.35938163  0.76122331  0.65408269    -0.16900
H2039       H  0.35682709  0.71940115  0.83584207     0.11300
H2040       H  0.35443646  0.72558350  0.76831338     0.10500
H2041       H  0.32769365  0.76613180  0.79569886     0.10500
H2042       H  0.32998077  0.76009378  0.86351535     0.11000
H2043       H  0.32012282  0.75821232  0.64959945     0.11100
H2044       H  0.32512129  0.76657637  0.58402977     0.11000
H2045       H  0.37414168  0.76813758  0.60854411     0.11200
H2046       H  0.36898536  0.75982323  0.67357970     0.10000
C2047       C  0.34376597  0.78432276  0.35493883    -0.03800
C2048       C  0.34062491  0.79674000  0.33018930    -0.09600
C2049       C  0.33999643  0.79437033  0.29094031    -0.17200
C2050       C  0.34240636  0.77956708  0.27596387     0.24900
C2051       C  0.34509352  0.76708511  0.30043096    -0.18900
C2052       C  0.34577781  0.76942597  0.33962875    -0.07800
C2053       C  0.34313401  0.77721408  0.23555465    -0.14200
C2054       C  0.34498564  0.77425092  0.20242597    -0.14000
C2055       C  0.34853774  0.76931683  0.16438918     0.24800
C2056       C  0.35742289  0.75596836  0.15909318    -0.19400
C2057       C  0.36107024  0.75095111  0.12255088    -0.07900
C2058       C  0.35585683  0.75920833  0.09056813    -0.03900
C2059       C  0.34695245  0.77266966  0.09608264    -0.09200
C2060       C  0.34334092  0.77770572  0.13283083    -0.16900
H2061       H  0.33902522  0.80835190  0.34105848     0.11300
H2062       H  0.33796490  0.80412861  0.27227180     0.10500
H2063       H  0.34701891  0.75558122  0.28913941     0.10500
H2064       H  0.34816650  0.75962032  0.35786624     0.11000
H2065       H  0.36152366  0.74939400  0.18328781     0.11100
H2066       H  0.36787560  0.74050472  0.11938694     0.11000
H2067       H  0.34274182  0.77925831  0.07206004     0.11200
H2068       H  0.33647680  0.78808202  0.13660852     0.10000
C2069       C  0.19594238  0.73068234  0.03423198    -0.03800
C2070       C  0.20626454  0.74319399  0.03869108    -0.09600
C2071       C  0.22202054  0.74151781  0.03046652    -0.17200
C2072       C  0.22780977  0.72732979  0.01758539     0.24900
C2073       C  0.21761410  0.71486304  0.01246463    -0.18900
C2074       C  0.20179505  0.71651829  0.02067629    -0.07800
C2075       C  0.24425095  0.72559021  0.01066857    -0.14200
C2076       C  0.25814162  0.72485829  0.00630302    -0.14000
C2077       C  0.27484248  0.72498827  0.00246949     0.24800
C2078       C  0.28231061  0.71523696  0.97647152    -0.19400
C2079       C  0.29843889  0.71599510  0.97182084    -0.07900
C2080       C  0.30732923  0.72659315  0.99299072    -0.03900
C2081       C  0.29973521  0.73607060  0.01963553    -0.09200
C2082       C  0.28366912  0.73525386  0.02431725    -0.16900
H2083       H  0.20220026  0.75429363  0.04888679     0.11300
H2084       H  0.22972666  0.75127445  0.03454926     0.10500
H2085       H  0.22191093  0.70381297  0.00249342     0.10500
H2086       H  0.19419115  0.70667973  0.01680418     0.11000
H2087       H  0.27565102  0.70722587  0.95936089     0.11100
H2088       H  0.30388229  0.70860831  0.95091653     0.11000
H2089       H  0.30618144  0.74435791  0.03643106     0.11200
H2090       H  0.27809291  0.74284731  0.04458737     0.10000
C2091       C  0.60302613  0.71722154  0.42536242    -0.03800
C2092       C  0.60500416  0.71020583  0.38966074    -0.09600
C2093       C  0.59278072  0.70216340  0.37250359    -0.17200
C2094       C  0.57841008  0.70107617  0.39067752     0.24900
C2095       C  0.57626766  0.70824490  0.42587877    -0.18900
C2096       C  0.58846295  0.71624719  0.44311752    -0.07800
C2097       C  0.56598226  0.69226049  0.37385723    -0.14200
C2098       C  0.55554151  0.68459472  0.36091128    -0.14000
C2099       C  0.54305299  0.67515379  0.34657501     0.24800
C2100       C  0.52839670  0.68160986  0.34051691    -0.19400
C2101       C  0.51619252  0.67236455  0.32747799    -0.07900
C2102       C  0.51847581  0.65649300  0.32027100    -0.03900
C2103       C  0.53327133  0.65012694  0.32629964    -0.09200
C2104       C  0.54545225  0.65939652  0.33936764    -0.16900
H2105       H  0.61606591  0.71069294  0.37529472     0.11300
H2106       H  0.59459515  0.69664319  0.34527756     0.10500
H2107       H  0.56521515  0.70748467  0.44025704     0.10500
H2108       H  0.58652861  0.72151045  0.47058283     0.11000
H2109       H  0.52637375  0.69377693  0.34606984     0.11100
H2110       H  0.50496061  0.67764047  0.32316775     0.11000
H2111       H  0.53542662  0.63796441  0.32109790     0.11200
H2112       H  0.55672709  0.65424849  0.34403585     0.10000
C2113       C  0.38884468  0.75088653  0.45710925    -0.03800
C2114       C  0.40396049  0.75372769  0.44394151    -0.09600
C2115       C  0.41335071  0.74150857  0.43171730    -0.17200
C2116       C  0.40782417  0.72627569  0.43265649     0.24900
C2117       C  0.39285649  0.72332082  0.44602533    -0.18900
C2118       C  0.38341816  0.73552659  0.45811229    -0.07800
C2119       C  0.41731784  0.71374045  0.41888327    -0.14200
C2120       C  0.42494133  0.70327285  0.40598928    -0.14000
C2121       C  0.43354600  0.69086158  0.38853894     0.24800
C2122       C  0.43563623  0.67675406  0.40749153    -0.19400
C2123       C  0.44321655  0.66445099  0.38945584    -0.07900
C2124       C  0.44878374  0.66611003  0.35214727    -0.03900
C2125       C  0.44692430  0.68045922  0.33372746    -0.09200
C2126       C  0.43934895  0.69270686  0.35177410    -0.16900
H2127       H  0.40847998  0.76541018  0.44271186     0.11300
H2128       H  0.42488733  0.74395915  0.42129586     0.10500
H2129       H  0.38842757  0.71159088  0.44680950     0.10500
H2130       H  0.37186661  0.73293679  0.46817676     0.11000
H2131       H  0.43119194  0.67517937  0.43596310     0.11100
H2132       H  0.44449249  0.65358517  0.40446455     0.11000
H2133       H  0.45108560  0.68216258  0.30505870     0.11200
H2134       H  0.43780483  0.70355252  0.33678927     0.10000
C2135       C  0.43437952  0.63466817  0.21512053    -0.03800
C2136       C  0.43740636  0.64057289  0.17864749    -0.09600
C2137       C  0.42525052  0.64473417  0.15450983    -0.17200
C2138       C  0.40987438  0.64298511  0.16624083     0.24900
C2139       C  0.40671809  0.63647842  0.20180318    -0.18900
C2140       C  0.41888395  0.63231112  0.22607996    -0.07800
C2141       C  0.39762007  0.64955511  0.14350150    -0.14200
C2142       C  0.38882710  0.65731116  0.12479359    -0.14000
C2143       C  0.38089921  0.66915465  0.10341527     0.24800
C2144       C  0.37121543  0.66553182  0.07266696    -0.19400
C2145       C  0.36559868  0.67737749  0.04901371    -0.07900
C2146       C  0.36987724  0.69284539  0.05570133    -0.03900
C2147       C  0.37888880  0.69637496  0.08772667    -0.09200
C2148       C  0.38428621  0.68463938  0.11143559    -0.16900
H2149       H  0.44917153  0.64256713  0.16927587     0.11300
H2150       H  0.42786403  0.64987718  0.12721083     0.10500
H2151       H  0.39487749  0.63518182  0.21136752     0.10500
H2152       H  0.41614810  0.62780523  0.25394991     0.11000
H2153       H  0.36856945  0.65357888  0.06604130     0.11100
H2154       H  0.35881416  0.67437792  0.02423228     0.11000
H2155       H  0.38232370  0.70820901  0.09347756     0.11200
H2156       H  0.39176306  0.68761050  0.13504442     0.10000
C2157       C  0.44830393  0.37108260  0.17492625    -0.03800
C2158       C  0.44628804  0.35703257  0.19456023    -0.09600
C2159       C  0.43857981  0.34464939  0.17752317    -0.17200
C2160       C  0.43279996  0.34609073  0.14063714     0.24900
C2161       C  0.43489920  0.35993460  0.12061806    -0.18900
C2162       C  0.44261748  0.37237529  0.13763562    -0.07800
C2163       C  0.42437555  0.33345067  0.12396350    -0.14200
C2164       C  0.41702988  0.32269584  0.11173214    -0.14000
C2165       C  0.40791006  0.30982041  0.09874489     0.24800
C2166       C  0.39269330  0.31221574  0.08654246    -0.19400
C2167       C  0.38363753  0.29968536  0.07492166    -0.07900
C2168       C  0.38971084  0.28456987  0.07529345    -0.03900
C2169       C  0.40504881  0.28227723  0.08748200    -0.09200
C2170       C  0.41407536  0.29483909  0.09920303    -0.16900
H2171       H  0.45048450  0.35565374  0.22332287     0.11300
H2172       H  0.43698788  0.33399584  0.19328636     0.10500
H2173       H  0.43043293  0.36116785  0.09204502     0.10500
H2174       H  0.44395928  0.38303912  0.12181563     0.11000
H2175       H  0.38779860  0.32376211  0.08619038     0.11100
H2176       H  0.37189335  0.30184769  0.06557564     0.11000
H2177       H  0.41005008  0.27078606  0.08809076     0.11200
H2178       H  0.42583174  0.29286148  0.10875350     0.10000
C2179       C  0.37032340  0.33967785  0.46621778    -0.03800
C2180       C  0.37208302  0.35497206  0.47932835    -0.09600
C2181       C  0.37777910  0.36650958  0.45521469    -0.17200
C2182       C  0.38161988  0.36294886  0.41765545     0.24900
C2183       C  0.37907352  0.34797760  0.40381454    -0.18900
C2184       C  0.37346324  0.33640912  0.42789693    -0.07800
C2185       C  0.38970757  0.37406098  0.39453146    -0.14200
C2186       C  0.39796695  0.38219979  0.37546958    -0.14000
C2187       C  0.40927323  0.39027412  0.35289504     0.24800
C2188       C  0.42389436  0.39343980  0.36815881    -0.19400
C2189       C  0.43566889  0.39926121  0.34502385    -0.07900
C2190       C  0.43296890  0.40199722  0.30622266    -0.03900
C2191       C  0.41801169  0.39952602  0.29155624    -0.09200
C2192       C  0.40626519  0.39362200  0.31473832    -0.16900
H2193       H  0.36985697  0.35784852  0.50872080     0.11300
H2194       H  0.37979008  0.37803196  0.46630748     0.10500
H2195       H  0.38206620  0.34507049  0.37483483     0.10500
H2196       H  0.37221874  0.32476420  0.41693349     0.11000
H2197       H  0.42638160  0.39082346  0.39760838     0.11100
H2198       H  0.44705322  0.40101696  0.35716555     0.11000
H2199       H  0.41559442  0.40138335  0.26174849     0.11200
H2200       H  0.39502548  0.39111814  0.30254922     0.10000
C2201       C  0.46468056  0.46399623  0.23541791    -0.03800
C2202       C  0.47631645  0.47500892  0.22814493    -0.09600
C2203       C  0.47386397  0.49067061  0.23583230    -0.17200
C2204       C  0.45976701  0.49566698  0.25094822     0.24900
C2205       C  0.44806849  0.48483553  0.25839594    -0.18900
C2206       C  0.45049586  0.46908167  0.25063389    -0.07800
C2207       C  0.45766933  0.51191788  0.25900265    -0.14200
C2208       C  0.45778475  0.52568493  0.26507723    -0.14000
C2209       C  0.46012954  0.54197155  0.27226457     0.24800
C2210       C  0.44818495  0.55273910  0.26694162    -0.19400
C2211       C  0.45081387  0.56852628  0.27383705    -0.07900
C2212       C  0.46544123  0.57370921  0.28613020    -0.03900
C2213       C  0.47734876  0.56277196  0.29108609    -0.09200
C2214       C  0.47470088  0.54707461  0.28421782    -0.16900
H2215       H  0.48737724  0.47153650  0.21651283     0.11300
H2216       H  0.48302430  0.49890921  0.23004346     0.10500
H2217       H  0.43711708  0.48854629  0.27022942     0.10500
H2218       H  0.44133056  0.46089680  0.25668918     0.11000
H2219       H  0.43686844  0.54894623  0.25751110     0.11100
H2220       H  0.44141616  0.57664278  0.26968047     0.11000
H2221       H  0.48875397  0.56632207  0.30041106     0.11200
H2222       H  0.48406106  0.53888918  0.28826055     0.10000
C2223       C  0.56101042  0.66914302  0.85071883    -0.03800
C2224       C  0.55385171  0.68377174  0.84957089    -0.09600
C2225       C  0.56126607  0.69674251  0.86499544    -0.17200
C2226       C  0.57586161  0.69523689  0.88191354     0.24900
C2227       C  0.58285512  0.68066455  0.88410696    -0.18900
C2228       C  0.57550580  0.66771221  0.86862780    -0.07800
C2229       C  0.58394176  0.70864914  0.89597822    -0.14200
C2230       C  0.59114585  0.71968702  0.90730166    -0.14000
C2231       C  0.59988119  0.73278246  0.92079492     0.24800
C2232       C  0.59522598  0.74053392  0.95368443    -0.19400
C2233       C  0.60355993  0.75334994  0.96666683    -0.07900
C2234       C  0.61672902  0.75857880  0.94696499    -0.03900
C2235       C  0.62141353  0.75063444  0.91408230    -0.09200
C2236       C  0.61301474  0.73782984  0.90107472    -0.16900
H2237       H  0.54272868  0.68527166  0.83587743     0.11300
H2238       H  0.55573842  0.70797363  0.86314903     0.10500
H2239       H  0.59413304  0.67935384  0.89718412     0.10500
H2240       H  0.58132149  0.65662418  0.87005675     0.11000
H2241       H  0.58510942  0.73671091  0.96922942     0.11100
H2242       H  0.59967784  0.75916332  0.99215109     0.11000
H2243       H  0.63148647  0.75437500  0.89828083     0.11200
H2244       H  0.61673716  0.73189736  0.87559241     0.10000
C2245       C  0.57800379  0.63696121  0.71670502    -0.03800
C2246       C  0.59359529  0.63308702  0.72299599    -0.09600
C2247       C  0.60513288  0.63872896  0.69854730    -0.17200
C2248       C  0.60109898  0.64803885  0.66742439     0.24900
C2249       C  0.58550282  0.65108781  0.65992025    -0.18900
C2250       C  0.57406223  0.64566151  0.68441929    -0.07800
C2251       C  0.61267510  0.65596291  0.64524852    -0.14200
C2252       C  0.62046334  0.66469099  0.62649110    -0.14000
C2253       C  0.62731414  0.67692888  0.60427847     0.24800
C2254       C  0.62793460  0.69194737  0.61913790    -0.19400
C2255       C  0.63213929  0.70440824  0.59600113    -0.07900
C2256       C  0.63575458  0.70202544  0.55754104    -0.03900
C2257       C  0.63590827  0.68678232  0.54335310    -0.09200
C2258       C  0.63163597  0.67433292  0.56654813    -0.16900
H2259       H  0.59691431  0.62657344  0.74796389     0.11300
H2260       H  0.61718210  0.63638142  0.70480125     0.10500
H2261       H  0.58221721  0.65830197  0.63607730     0.10500
H2262       H  0.56212165  0.64880158  0.67898863     0.11000
H2263       H  0.62451526  0.69412742  0.64821677     0.11100
H2264       H  0.63193002  0.71597362  0.60783868     0.11000
H2265       H  0.63860034  0.68454362  0.51386420     0.11200
H2266       H  0.63108685  0.66279052  0.55461020     0.10000
C2267       C  0.49110686  0.65185085  0.82632850    -0.03800
C2268       C  0.48291414  0.64723038  0.85893974    -0.09600
C2269       C  0.46992235  0.65557341  0.87117240    -0.17200
C2270       C  0.46488851  0.66862667  0.85099469     0.24900
C2271       C  0.47298973  0.67331009  0.81858209    -0.18900
C2272       C  0.48599054  0.66502526  0.80636672    -0.07800
C2273       C  0.45147744  0.67725306  0.86353345    -0.14200
C2274       C  0.44033951  0.68452995  0.87426525    -0.14000
C2275       C  0.42713491  0.69310195  0.88825543     0.24800
C2276       C  0.42918950  0.70761696  0.90527522    -0.19400
C2277       C  0.41656194  0.71547718  0.92112215    -0.07900
C2278       C  0.40166689  0.70887898  0.92039566    -0.03900
C2279       C  0.39963680  0.69450092  0.90219560    -0.09200
C2280       C  0.41226480  0.68669831  0.88624285    -0.16900
H2281       H  0.48654746  0.63718252  0.87502164     0.11300
H2282       H  0.46379266  0.65182490  0.89635279     0.10500
H2283       H  0.46925632  0.68338258  0.80270295     0.10500
H2284       H  0.49199391  0.66891100  0.78114635     0.11000
H2285       H  0.44061968  0.71272836  0.90700283     0.11100
H2286       H  0.41854927  0.72649353  0.93493672     0.11000
H2287       H  0.38833182  0.68910796  0.90098883     0.11200
H2288       H  0.41047604  0.67550682  0.87308794     0.10000
C2289       C  0.50198548  0.61822386  0.18397402    -0.03800
C2290       C  0.50531369  0.60302064  0.17203373    -0.09600
C2291       C  0.51056514  0.60016047  0.13499222    -0.17200
C2292       C  0.51257172  0.61243921  0.10941401     0.24900
C2293       C  0.50937110  0.62756771  0.12120636    -0.18900
C2294       C  0.50413204  0.63044627  0.15806126    -0.07800
C2295       C  0.51766126  0.60972192  0.07086729    -0.14200
C2296       C  0.52158722  0.60866040  0.03800354    -0.14000
C2297       C  0.52585456  0.60867224  0.99829182     0.24800
C2298       C  0.53859267  0.61734186  0.98594574    -0.19400
C2299       C  0.54205773  0.61838461  0.94720776    -0.07900
C2300       C  0.53279458  0.61079337  0.92005936    -0.03900
C2301       C  0.52022423  0.60181075  0.93279646    -0.09200
C2302       C  0.51679033  0.60077632  0.97158903    -0.16900
H2303       H  0.50374918  0.59334266  0.19118389     0.11300
H2304       H  0.51296796  0.58838223  0.12626580     0.10500
H2305       H  0.51084047  0.63717871  0.10177602     0.10500
H2306       H  0.50167216  0.64228201  0.16616211     0.11000
H2307       H  0.54567408  0.62357230  0.00621616     0.11100
H2308       H  0.55178982  0.62543420  0.93848349     0.11000
H2309       H  0.51283386  0.59584452  0.91274168     0.11200
H2310       H  0.50686112  0.59407711  0.98067400     0.10000
C2311       C  0.51163768  0.62107622  0.68336624    -0.03800
C2312       C  0.51722768  0.62915221  0.65150558    -0.09600
C2313       C  0.51163986  0.62581807  0.61522914    -0.17200
C2314       C  0.50043079  0.61432437  0.61003345     0.24900
C2315       C  0.49481169  0.60614513  0.64148299    -0.18900
C2316       C  0.50035688  0.60951651  0.67797508    -0.07800
C2317       C  0.49488036  0.61112204  0.57221848    -0.14200
C2318       C  0.49141726  0.60971439  0.53918780    -0.14000
C2319       C  0.48881619  0.60952508  0.49874089     0.24800
C2320       C  0.47388398  0.60783596  0.48378476    -0.19400
C2321       C  0.47145835  0.60878430  0.44450752    -0.07900
C2322       C  0.48394824  0.61153292  0.41972394    -0.03900
C2323       C  0.49892043  0.61293237  0.43506907    -0.09200
C2324       C  0.50131320  0.61192068  0.47421064    -0.16900
H2325       H  0.52591809  0.63810232  0.65457477     0.11300
H2326       H  0.51609508  0.63221846  0.59114864     0.10500
H2327       H  0.48615911  0.59719214  0.63782177     0.10500
H2328       H  0.49590047  0.60302836  0.70188003     0.11000
H2329       H  0.46409775  0.60605493  0.50247580     0.11100
H2330       H  0.45978500  0.60769021  0.43363602     0.11000
H2331       H  0.50879213  0.61502168  0.41686570     0.11200
H2332       H  0.51291267  0.61330587  0.48542030     0.10000
C2333       C  0.40078658  0.32706101  0.60014965    -0.03800
C2334       C  0.39895416  0.33454647  0.63533786    -0.09600
C2335       C  0.41112571  0.34317449  0.65104865    -0.17200
C2336       C  0.42527230  0.34441001  0.63185484     0.24900
C2337       C  0.42728323  0.33672006  0.59729785    -0.18900
C2338       C  0.41517288  0.32811739  0.58157069    -0.07800
C2339       C  0.43772022  0.35368674  0.64705563    -0.14200
C2340       C  0.44856151  0.36122437  0.65839968    -0.14000
C2341       C  0.46196845  0.36971262  0.67129698     0.24800
C2342       C  0.47162641  0.36331767  0.69906000    -0.19400
C2343       C  0.48485019  0.37127225  0.71108331    -0.07900
C2344       C  0.48865699  0.38579030  0.69547531    -0.03900
C2345       C  0.47886273  0.39216330  0.66759957    -0.09200
C2346       C  0.46561545  0.38416796  0.65561095    -0.16900
H2347       H  0.38804072  0.33398562  0.65035174     0.11300
H2348       H  0.40943520  0.34903479  0.67789144     0.10500
H2349       H  0.43817579  0.33753098  0.58221600     0.10500
H2350       H  0.41701520  0.32250918  0.55448023     0.11000
H2351       H  0.46897238  0.35212657  0.71133632     0.11100
H2352       H  0.49210871  0.36602048  0.73258279     0.11000
H2353       H  0.48144150  0.40330787  0.65502274     0.11200
H2354       H  0.45826397  0.38922789  0.63400301     0.10000
C2355       C  0.52957037  0.42783465  0.60347686    -0.03800
C2356       C  0.51691945  0.43707628  0.59251099    -0.09600
C2357       C  0.51325816  0.43897269  0.55410332    -0.17200
C2358       C  0.52220046  0.43169555  0.52623936     0.24900
C2359       C  0.53494121  0.42269280  0.53685615    -0.18900
C2360       C  0.53862563  0.42078115  0.57516204    -0.07800
C2361       C  0.51779206  0.43254590  0.48692609    -0.14200
C2362       C  0.51401010  0.43165909  0.45407818    -0.14000
C2363       C  0.50938090  0.42848726  0.41565479     0.24800
C2364       C  0.50587506  0.44049934  0.39036649    -0.19400
C2365       C  0.50107975  0.43707903  0.35331920    -0.07900
C2366       C  0.49970128  0.42159270  0.34133751    -0.03900
C2367       C  0.50335176  0.40966014  0.36697706    -0.09200
C2368       C  0.50816968  0.41309830  0.40378252    -0.16900
H2369       H  0.50968695  0.44260712  0.61359520     0.11300
H2370       H  0.50329148  0.44586657  0.54619087     0.10500
H2371       H  0.54186539  0.41690264  0.51553366     0.10500
H2372       H  0.54839784  0.41353856  0.58259227     0.11000
H2373       H  0.50675602  0.45246222  0.39932014     0.11100
H2374       H  0.49829372  0.44651097  0.33425417     0.11000
H2375       H  0.50243602  0.39762637  0.35867353     0.11200
H2376       H  0.51085254  0.40371734  0.42312335     0.10000
C2377       C  0.51145342  0.41297038  0.83979579    -0.03800
C2378       C  0.49938802  0.42346921  0.84729677    -0.09600
C2379       C  0.49446780  0.42607875  0.88460134    -0.17200
C2380       C  0.50152656  0.41822103  0.91475712     0.24900
C2381       C  0.51345806  0.40770213  0.90750602    -0.18900
C2382       C  0.51839938  0.40509169  0.87036375    -0.07800
C2383       C  0.49670212  0.42089318  0.95327596    -0.14200
C2384       C  0.49346990  0.42238027  0.98634513    -0.14000
C2385       C  0.49058146  0.42316717  0.02650821     0.24800
C2386       C  0.50208320  0.41840649  0.05188339    -0.19400
C2387       C  0.49925968  0.41850070  0.09086900    -0.07900
C2388       C  0.48483596  0.42333618  0.10511979    -0.03900
C2389       C  0.47337413  0.42827488  0.07943408    -0.09200
C2390       C  0.47625123  0.42819571  0.04033450    -0.16900
H2391       H  0.49383806  0.42973677  0.82441883     0.11300
H2392       H  0.48521497  0.43425200  0.88992305     0.10500
H2393       H  0.51900043  0.40155203  0.93061955     0.10500
H2394       H  0.52772108  0.39693996  0.86564800     0.11000
H2395       H  0.51319957  0.41444981  0.04149929     0.11100
H2396       H  0.50832088  0.41456832  0.10980540     0.11000
H2397       H  0.46215496  0.43203920  0.08950282     0.11200
H2398       H  0.46725181  0.43187539  0.02090508     0.10000
C2399       C  0.54665752  0.57401781  0.78066740    -0.03800
C2400       C  0.53674457  0.56582034  0.75606309    -0.09600
C2401       C  0.53861205  0.54989232  0.75032458    -0.17200
C2402       C  0.55041155  0.54179301  0.76898289     0.24900
C2403       C  0.56060912  0.54989460  0.79278753    -0.18900
C2404       C  0.55877900  0.56589033  0.79853300    -0.07800
C2405       C  0.55152385  0.52512834  0.76465149    -0.14200
C2406       C  0.55132880  0.51118149  0.76076280    -0.14000
C2407       C  0.54987509  0.49457135  0.75580927     0.24800
C2408       C  0.55884481  0.48674126  0.72880496    -0.19400
C2409       C  0.55667078  0.47084078  0.72249460    -0.07900
C2410       C  0.54540067  0.46251778  0.74295263    -0.03900
C2411       C  0.53668494  0.47042418  0.77057748    -0.09200
C2412       C  0.53892256  0.48628327  0.77694014    -0.16900
H2413       H  0.52731371  0.57165970  0.74173729     0.11300
H2414       H  0.53063545  0.54383021  0.73181895     0.10500
H2415       H  0.56979695  0.54380829  0.80745767     0.10500
H2416       H  0.56659497  0.57180361  0.81769296     0.11000
H2417       H  0.56733530  0.49297468  0.71214132     0.11100
H2418       H  0.56353890  0.46515703  0.70092719     0.11000
H2419       H  0.52793286  0.46440717  0.78688216     0.11200
H2420       H  0.53187749  0.49214871  0.79788783     0.10000
C2421       C  0.55772912  0.16878762  0.16408926    -0.03800
C2422       C  0.55014467  0.18309583  0.15971709    -0.09600
C2423       C  0.55772977  0.19559437  0.14261603    -0.17200
C2424       C  0.57294081  0.19393365  0.12959691     0.24900
C2425       C  0.58044032  0.17965695  0.13306339    -0.18900
C2426       C  0.57290081  0.16716308  0.15014406    -0.07800
C2427       C  0.58112081  0.20699484  0.11409777    -0.14200
C2428       C  0.58846037  0.21786650  0.10242124    -0.14000
C2429       C  0.59765579  0.23076860  0.08980526     0.24800
C2430       C  0.61322429  0.22857042  0.08035214    -0.19400
C2431       C  0.62230249  0.24114165  0.06901901    -0.07900
C2432       C  0.61591075  0.25610579  0.06697432    -0.03900
C2433       C  0.60023012  0.25819110  0.07644152    -0.09200
C2434       C  0.59117671  0.24559262  0.08779899    -0.16900
H2435       H  0.53849238  0.18473720  0.17025547     0.11300
H2436       H  0.55183105  0.20661496  0.14014423     0.10500
H2437       H  0.59222345  0.17825268  0.12314993     0.10500
H2438       H  0.57907908  0.15632455  0.15310681     0.11000
H2439       H  0.61837010  0.21715120  0.08192839     0.11100
H2440       H  0.63432853  0.23913995  0.06193625     0.11000
H2441       H  0.59496992  0.26955681  0.07520945     0.11200
H2442       H  0.57914802  0.24742790  0.09518991     0.10000
C2443       C  0.63743858  0.34118738  0.96711664    -0.03800
C2444       C  0.63714037  0.35662002  0.97994076    -0.09600
C2445       C  0.63262925  0.36859523  0.95551437    -0.17200
C2446       C  0.62853562  0.36531200  0.91792967     0.24900
C2447       C  0.62960694  0.35011119  0.90444748    -0.18900
C2448       C  0.63403470  0.33813452  0.92879603    -0.07800
C2449       C  0.62124060  0.37690775  0.89458712    -0.14200
C2450       C  0.61283896  0.38461648  0.87479629    -0.14000
C2451       C  0.60046567  0.39057861  0.85160789     0.24800
C2452       C  0.58622610  0.38292795  0.85258916    -0.19400
C2453       C  0.57443126  0.38716128  0.82775396    -0.07900
C2454       C  0.57663150  0.39918849  0.80141773    -0.03900
C2455       C  0.59070728  0.40738383  0.80165287    -0.09200
C2456       C  0.60264391  0.40301313  0.82655170    -0.16900
H2457       H  0.63963904  0.35934840  0.00929556     0.11300
H2458       H  0.63168494  0.38028305  0.96639612     0.10500
H2459       H  0.62633083  0.34739588  0.87552061     0.10500
H2460       H  0.63417867  0.32640247  0.91797801     0.11000
H2461       H  0.58438396  0.37331778  0.87185108     0.11100
H2462       H  0.56366926  0.38073530  0.82856256     0.11000
H2463       H  0.59270194  0.41667291  0.78160452     0.11200
H2464       H  0.61364567  0.40900634  0.82551157     0.10000
C2465       C  0.60561959  0.32555807  0.10411412    -0.03800
C2466       C  0.60761449  0.33243026  0.14000563    -0.09600
C2467       C  0.59508606  0.33938501  0.15864736    -0.17200
C2468       C  0.58038627  0.33950115  0.14180998     0.24900
C2469       C  0.57824115  0.33239130  0.10652414    -0.18900
C2470       C  0.59072967  0.32548227  0.08781682    -0.07800
C2471       C  0.56762547  0.34744031  0.15976716    -0.14200
C2472       C  0.55685482  0.35454417  0.17302263    -0.14000
C2473       C  0.54398264  0.36355776  0.18701694     0.24800
C2474       C  0.52912074  0.35711304  0.18869836    -0.19400
C2475       C  0.51653730  0.36609767  0.20063089    -0.07900
C2476       C  0.51863376  0.38170516  0.21095259    -0.03900
C2477       C  0.53364410  0.38802177  0.20956206    -0.09200
C2478       C  0.54620189  0.37901011  0.19770172    -0.16900
H2479       H  0.61889965  0.33267345  0.15337722     0.11300
H2480       H  0.59691764  0.34486455  0.18592489     0.10500
H2481       H  0.56694509  0.33239652  0.09315045     0.10500
H2482       H  0.58874476  0.32023859  0.06034099     0.11000
H2483       H  0.52722460  0.34518822  0.18039452     0.11100
H2484       H  0.50514729  0.36087493  0.20133733     0.11000
H2485       H  0.53568062  0.39997398  0.21735636     0.11200
H2486       H  0.55762483  0.38415893  0.19644747     0.10000
C2487       C  0.80876856  0.30778044  0.99451280    -0.03800
C2488       C  0.79999665  0.29784027  0.01774231    -0.09600
C2489       C  0.78426704  0.30064582  0.02403465    -0.17200
C2490       C  0.77699213  0.31342581  0.00733449     0.24900
C2491       C  0.78565562  0.32356789  0.98471279    -0.18900
C2492       C  0.80144163  0.32078314  0.97836499    -0.07800
C2493       C  0.76054580  0.31562140  0.01257692    -0.14200
C2494       C  0.74671861  0.31584260  0.01786905    -0.14000
C2495       C  0.73038422  0.31402100  0.02548885     0.24800
C2496       C  0.71960923  0.32535263  0.01473375    -0.19400
C2497       C  0.70375957  0.32310664  0.02170121    -0.07900
C2498       C  0.69851652  0.30944706  0.03932154    -0.03900
C2499       C  0.70948274  0.29822119  0.05014948    -0.09200
C2500       C  0.72523583  0.30051179  0.04334461    -0.16900
H2501       H  0.80522621  0.28773487  0.03064661     0.11300
H2502       H  0.77771173  0.29269104  0.04155091     0.10500
H2503       H  0.78017548  0.33348932  0.97155538     0.10500
H2504       H  0.80783758  0.32865730  0.96032586     0.11000
H2505       H  0.72343512  0.33585863  0.00082161     0.11100
H2506       H  0.69562008  0.33195169  0.01298709     0.11000
H2507       H  0.70590042  0.28759950  0.06390898     0.11200
H2508       H  0.73341903  0.29165212  0.05181229     0.10000
C2509       C  0.94488516  0.16476131  0.84950522    -0.03800
C2510       C  0.93761982  0.16275517  0.88488644    -0.09600
C2511       C  0.92945460  0.17497868  0.90162555    -0.17200
C2512       C  0.92851318  0.18934371  0.88330828     0.24900
C2513       C  0.93604639  0.19154119  0.84862524    -0.18900
C2514       C  0.94416719  0.17936421  0.83182970    -0.07800
C2515       C  0.91949805  0.20174592  0.89935466    -0.14200
C2516       C  0.91189551  0.21236258  0.91147332    -0.14000
C2517       C  0.90299719  0.22530650  0.92518745     0.24800
C2518       C  0.90882885  0.23456198  0.95445219    -0.19400
C2519       C  0.90039823  0.24732915  0.96733424    -0.07900
C2520       C  0.88598820  0.25105194  0.95104510    -0.03900
C2521       C  0.88017403  0.24163242  0.92172781    -0.09200
C2522       C  0.88863458  0.22884623  0.90891055    -0.16900
H2523       H  0.93794192  0.15166303  0.89918890     0.11300
H2524       H  0.92368207  0.17315451  0.92852904     0.10500
H2525       H  0.93543435  0.20261038  0.83422773     0.10500
H2526       H  0.94966379  0.18132809  0.80465262     0.11000
H2527       H  0.91994056  0.23195570  0.96721233     0.11100
H2528       H  0.90521671  0.25433124  0.98991634     0.11000
H2529       H  0.86912782  0.24417331  0.90859194     0.11200
H2530       H  0.88401454  0.22177722  0.88618202     0.10000
C2531       C  0.87125860  0.33863190  0.05802715    -0.03800
C2532       C  0.88416237  0.33738990  0.08221575    -0.09600
C2533       C  0.88796595  0.34929285  0.10712282    -0.17200
C2534       C  0.87898686  0.36272259  0.10856622     0.24900
C2535       C  0.86576422  0.36396327  0.08559796    -0.18900
C2536       C  0.86186067  0.35191454  0.06048492    -0.07800
C2537       C  0.88436205  0.37523879  0.13225908    -0.14200
C2538       C  0.89226232  0.38344335  0.15216255    -0.14000
C2539       C  0.90480727  0.38973004  0.17440308     0.24800
C2540       C  0.90240059  0.40089408  0.20269541    -0.19400
C2541       C  0.91470285  0.40540942  0.22638546    -0.07900
C2542       C  0.92940110  0.39859614  0.22223520    -0.03900
C2543       C  0.93175057  0.38784271  0.19289998    -0.09200
C2544       C  0.91959017  0.38350394  0.16919656    -0.16900
H2545       H  0.89159087  0.32729697  0.08139411     0.11300
H2546       H  0.89820795  0.34816582  0.12469067     0.10500
H2547       H  0.85872821  0.37433182  0.08641380     0.10500
H2548       H  0.85186347  0.35319914  0.04221621     0.11000
H2549       H  0.89099079  0.40574515  0.20714661     0.11100
H2550       H  0.91256719  0.41363729  0.24895203     0.11000
H2551       H  0.94295310  0.38246254  0.18887677     0.11200
H2552       H  0.92161759  0.37484835  0.14750409     0.10000
C2553       C  0.90360639  0.32072455  0.92344718    -0.03800
C2554       C  0.91797933  0.31306490  0.92194049    -0.09600
C2555       C  0.93078287  0.32012780  0.90463741    -0.17200
C2556       C  0.92938973  0.33489571  0.88848928     0.24900
C2557       C  0.91506434  0.34244171  0.88924557    -0.18900
C2558       C  0.90229070  0.33544027  0.90654419    -0.07800
C2559       C  0.94266088  0.34261782  0.87218251    -0.14200
C2560       C  0.95337258  0.34992050  0.85922445    -0.14000
C2561       C  0.96574706  0.35946825  0.84456077     0.24800
C2562       C  0.96315172  0.37521427  0.83753297    -0.19400
C2563       C  0.97514515  0.38464257  0.82414198    -0.07900
C2564       C  0.98997590  0.37846618  0.81756032    -0.03900
C2565       C  0.99246682  0.36259915  0.82451058    -0.09200
C2566       C  0.98043722  0.35318431  0.83789857    -0.16900
H2567       H  0.91940897  0.30176053  0.93475442     0.11300
H2568       H  0.94180695  0.31415986  0.90431238     0.10500
H2569       H  0.91381026  0.35386363  0.87690671     0.10500
H2570       H  0.89142263  0.34167454  0.90713972     0.11000
H2571       H  0.95185585  0.38024155  0.84262179     0.11100
H2572       H  0.97281844  0.39679196  0.81917616     0.11000
H2573       H  0.00373431  0.35746677  0.81979602     0.11200
H2574       H  0.98262436  0.34103079  0.84326385     0.10000
C2575       C  0.65990955  0.28992325  0.16928361    -0.03800
C2576       C  0.66163915  0.30216889  0.19526334    -0.09600
C2577       C  0.66244155  0.29916740  0.23424114    -0.17200
C2578       C  0.66164545  0.28391588  0.24755432     0.24900
C2579       C  0.66028084  0.27167579  0.22184193    -0.18900
C2580       C  0.65939677  0.27463840  0.18299502    -0.07800
C2581       C  0.66138523  0.28070814  0.28754901    -0.14200
C2582       C  0.66015492  0.27708947  0.32040650    -0.14000
C2583       C  0.65751819  0.27196194  0.35864426     0.24800
C2584       C  0.66975037  0.27109036  0.38461324    -0.19400
C2585       C  0.66707174  0.26583924  0.42159110    -0.07900
C2586       C  0.65209898  0.26142594  0.43294281    -0.03900
C2587       C  0.63991158  0.26230688  0.40651801    -0.09200
C2588       C  0.64262182  0.26752894  0.36965334    -0.16900
H2589       H  0.66201429  0.31405699  0.18554804     0.11300
H2590       H  0.66342367  0.30873087  0.25397308     0.10500
H2591       H  0.65960892  0.25983549  0.23187798     0.10500
H2592       H  0.65812599  0.26495647  0.16373161     0.11000
H2593       H  0.68134486  0.27442804  0.37626775     0.11100
H2594       H  0.67669240  0.26524764  0.44124714     0.11000
H2595       H  0.62826571  0.25892821  0.41426720     0.11200
H2596       H  0.63309126  0.26807967  0.34969099     0.10000
C2597       C  0.65407316  0.27434128  0.93375836    -0.03800
C2598       C  0.66903672  0.26961549  0.92302374    -0.09600
C2599       C  0.67199088  0.26483292  0.88571918    -0.17200
C2600       C  0.66003937  0.26476173  0.85882502     0.24900
C2601       C  0.64513539  0.26930096  0.86943924    -0.18900
C2602       C  0.64215319  0.27402348  0.90655526    -0.07800
C2603       C  0.66285044  0.26035202  0.82004348    -0.14200
C2604       C  0.66364468  0.25719437  0.78676866    -0.14000
C2605       C  0.66301948  0.25398912  0.74669792     0.24800
C2606       C  0.66464566  0.23881781  0.73334599    -0.19400
C2607       C  0.66307818  0.23563595  0.69459594    -0.07900
C2608       C  0.65977405  0.24760414  0.66872595    -0.03900
C2609       C  0.65829383  0.26283649  0.68242745    -0.09200
C2610       C  0.65991885  0.26598741  0.72111705    -0.16900
H2611       H  0.67845069  0.26971962  0.94332242     0.11300
H2612       H  0.68358452  0.26133706  0.87779867     0.10500
H2613       H  0.63580291  0.26930715  0.84887585     0.10500
H2614       H  0.63051859  0.27761536  0.91378549     0.11000
H2615       H  0.66692460  0.22942026  0.75293201     0.11100
H2616       H  0.66422538  0.22378772  0.68498696     0.11000
H2617       H  0.65575930  0.27231917  0.66330184     0.11200
H2618       H  0.65853187  0.27776029  0.73115092     0.10000
C2619       C  0.57368500  0.13847133  0.30260315    -0.03800
C2620       C  0.58746315  0.12981535  0.30389806    -0.09600
C2621       C  0.59932327  0.13396148  0.32922787    -0.17200
C2622       C  0.59737141  0.14663942  0.35362883     0.24900
C2623       C  0.58343070  0.15482375  0.35342786    -0.18900
C2624       C  0.57170843  0.15080091  0.32818680    -0.07800
C2625       C  0.60971654  0.15221513  0.37747005    -0.14200
C2626       C  0.61833735  0.15954861  0.39754383    -0.14000
C2627       C  0.62618028  0.17081524  0.42077514     0.24800
C2628       C  0.62827733  0.18581913  0.40672075    -0.19400
C2629       C  0.63329390  0.19765621  0.43073810    -0.07900
C2630       C  0.63627820  0.19467021  0.46930485    -0.03900
C2631       C  0.63499692  0.17937528  0.48274555    -0.09200
C2632       C  0.62987989  0.16753229  0.45862916    -0.16900
H2633       H  0.58929121  0.12030214  0.28442106     0.11300
H2634       H  0.61010227  0.12756457  0.32909716     0.10500
H2635       H  0.58176837  0.16463375  0.37214577     0.10500
H2636       H  0.56117684  0.15760425  0.32814339     0.11000
H2637       H  0.62533719  0.18853897  0.37757539     0.11100
H2638       H  0.63419418  0.20928708  0.41946203     0.11000
H2639       H  0.63711677  0.17672569  0.51232717     0.11200
H2640       H  0.62815285  0.15599793  0.46993504     0.10000
C2641       C  0.60554322  0.20985652  0.60600048    -0.03800
C2642       C  0.59073713  0.20915891  0.58932694    -0.09600
C2643       C  0.57847810  0.20183847  0.60797527    -0.17200
C2644       C  0.58074376  0.19507328  0.64361475     0.24900
C2645       C  0.59536888  0.19587450  0.66077523    -0.18900
C2646       C  0.60769020  0.20323838  0.64214341    -0.07800
C2647       C  0.56809414  0.18700839  0.66177065    -0.14200
C2648       C  0.55714782  0.18009901  0.67483271    -0.14000
C2649       C  0.54381070  0.17163307  0.68834643     0.24800
C2650       C  0.54548018  0.15651285  0.70208341    -0.19400
C2651       C  0.53247328  0.14802466  0.71344259    -0.07900
C2652       C  0.51756249  0.15455227  0.71131380    -0.03900
C2653       C  0.51601584  0.16983530  0.69797964    -0.09200
C2654       C  0.52904102  0.17828195  0.68649740    -0.16900
H2655       H  0.58863006  0.21414300  0.56160793     0.11300
H2656       H  0.56724309  0.20131093  0.59435086     0.10500
H2657       H  0.59729222  0.19067474  0.68834935     0.10500
H2658       H  0.61892262  0.20356066  0.65576957     0.11000
H2659       H  0.55682400  0.15120585  0.70359130     0.11100
H2660       H  0.53409014  0.13631332  0.72366397     0.11000
H2661       H  0.50471819  0.17519487  0.69591402     0.11200
H2662       H  0.52756795  0.18994803  0.67579819     0.10000
C2663       C  0.61444074  0.28031887  0.56456296    -0.03800
C2664       C  0.62096188  0.29523725  0.56656564    -0.09600
C2665       C  0.61190864  0.30796889  0.57686269    -0.17200
C2666       C  0.59620418  0.30602056  0.58525656     0.24900
C2667       C  0.58955744  0.29125988  0.58298838    -0.18900
C2668       C  0.59860185  0.27848278  0.57269338    -0.07800
C2669       C  0.58712678  0.31909527  0.59754465    -0.14200
C2670       C  0.58013153  0.33017496  0.60943158    -0.14000
C2671       C  0.57258795  0.34349318  0.62573289     0.24800
C2672       C  0.55717166  0.34260526  0.63779276    -0.19400
C2673       C  0.55026634  0.35521948  0.65613504    -0.07900
C2674       C  0.55872437  0.36889129  0.66269596    -0.03900
C2675       C  0.57408453  0.36978762  0.64956163    -0.09200
C2676       C  0.58095131  0.35717669  0.63130377    -0.16900
H2677       H  0.63310212  0.29707585  0.56043579     0.11300
H2678       H  0.61720200  0.31931824  0.57863273     0.10500
H2679       H  0.57742217  0.28959941  0.58953637     0.10500
H2680       H  0.59322354  0.26717319  0.57133318     0.11000
H2681       H  0.55058735  0.33206165  0.63370974     0.11100
H2682       H  0.53843071  0.35415098  0.66586417     0.11000
H2683       H  0.58093649  0.38011814  0.65413269     0.11200
H2684       H  0.59289624  0.35800071  0.62218751     0.10000
C2685       C  0.84833331  0.23992252  0.35635762    -0.03800
C2686       C  0.83941643  0.25240068  0.34290530    -0.09600
C2687       C  0.83886838  0.25579943  0.30407108    -0.17200
C2688       C  0.84721920  0.24680092  0.27814491     0.24900
C2689       C  0.85598116  0.23426013  0.29121976    -0.18900
C2690       C  0.85652098  0.23081649  0.32998686    -0.07800
C2691       C  0.84743914  0.25090728  0.23845349    -0.14200
C2692       C  0.84845153  0.25498717  0.20576095    -0.14000
C2693       C  0.85084082  0.26078763  0.16780965     0.24800
C2694       C  0.84244782  0.25487207  0.13699727    -0.19400
C2695       C  0.84510362  0.26054136  0.10026045    -0.07900
C2696       C  0.85617040  0.27223169  0.09397118    -0.03900
C2697       C  0.86443259  0.27813638  0.12523367    -0.09200
C2698       C  0.86180269  0.27243710  0.16174738    -0.16900
H2699       H  0.83302371  0.25966003  0.36241588     0.11300
H2700       H  0.83211896  0.26559521  0.29433550     0.10500
H2701       H  0.86258155  0.22726911  0.27150524     0.10500
H2702       H  0.86357125  0.22117942  0.33934583     0.11000
H2703       H  0.83391008  0.24586030  0.14132950     0.11100
H2704       H  0.83850714  0.25580151  0.07685413     0.11000
H2705       H  0.87302910  0.28713229  0.12150253     0.11200
H2706       H  0.86836952  0.27711586  0.18530924     0.10000
C2707       C  0.85768765  0.26029074  0.59392845    -0.03800
C2708       C  0.84707646  0.27244861  0.59944974    -0.09600
C2709       C  0.84395704  0.27797028  0.63611578    -0.17200
C2710       C  0.85144145  0.27145049  0.66762721     0.24900
C2711       C  0.86220277  0.25957085  0.66221455    -0.18900
C2712       C  0.86528976  0.25402182  0.62578655    -0.07800
C2713       C  0.84817525  0.27672441  0.70568516    -0.14200
C2714       C  0.84640970  0.28046410  0.73845208    -0.14000
C2715       C  0.84561295  0.28466414  0.77808375     0.24800
C2716       C  0.83822948  0.27498118  0.80438578    -0.19400
C2717       C  0.83852397  0.27858393  0.84319077    -0.07900
C2718       C  0.84626457  0.29191541  0.85620007    -0.03900
C2719       C  0.85335105  0.30171165  0.82939100    -0.09200
C2720       C  0.85302629  0.29810124  0.79073623    -0.16900
H2721       H  0.84103158  0.27751678  0.57556079     0.11300
H2722       H  0.83563547  0.28721609  0.63989775     0.10500
H2723       H  0.86813024  0.25447047  0.68627016     0.10500
H2724       H  0.87357547  0.24470688  0.62265193     0.11000
H2725       H  0.83251732  0.26449292  0.79500412     0.11100
H2726       H  0.83303028  0.27075277  0.86303979     0.11000
H2727       H  0.85945129  0.31203827  0.83832894     0.11200
H2728       H  0.85884487  0.30565489  0.77076616     0.10000
C2729       C  0.80861459  0.22741725  0.49195971    -0.03800
C2730       C  0.80026753  0.21590906  0.47235238    -0.09600
C2731       C  0.78429343  0.21414623  0.47800850    -0.17200
C2732       C  0.77642624  0.22379665  0.50345668     0.24900
C2733       C  0.78469205  0.23510384  0.52349809    -0.18900
C2734       C  0.80062774  0.23691917  0.51781392    -0.07800
C2735       C  0.75984530  0.22249469  0.50844916    -0.14200
C2736       C  0.74598595  0.22254240  0.51351090    -0.14000
C2737       C  0.72960059  0.22423513  0.52099375     0.24800
C2738       C  0.72406715  0.23832141  0.53503513    -0.19400
C2739       C  0.70832516  0.24025857  0.54272517    -0.07900
C2740       C  0.69772699  0.22811058  0.53659540    -0.03900
C2741       C  0.70333947  0.21395302  0.52236066    -0.09200
C2742       C  0.71918260  0.21204084  0.51459683    -0.16900
H2743       H  0.80602942  0.20842701  0.45217811     0.11300
H2744       H  0.77806270  0.20536671  0.46224364     0.10500
H2745       H  0.77877544  0.24266404  0.54325476     0.10500
H2746       H  0.80666444  0.24587270  0.53342447     0.11000
H2747       H  0.73195270  0.24785573  0.54012135     0.11100
H2748       H  0.70447266  0.25132476  0.55360880     0.11000
H2749       H  0.69550912  0.20439115  0.51723217     0.11200
H2750       H  0.72329500  0.20106713  0.50369840     0.10000
C2751       C  0.86711316  0.19186073  0.55894079    -0.03800
C2752       C  0.87359253  0.19493909  0.59466330    -0.09600
C2753       C  0.87793924  0.18281787  0.61857403    -0.17200
C2754       C  0.87609359  0.16744650  0.60688564     0.24900
C2755       C  0.86894539  0.16425311  0.57200185    -0.18900
C2756       C  0.86432319  0.17644286  0.54821128    -0.07800
C2757       C  0.88346865  0.15539555  0.62868862    -0.14200
C2758       C  0.89198537  0.14734575  0.64737661    -0.14000
C2759       C  0.90430937  0.14051490  0.66934391     0.24800
C2760       C  0.90159128  0.13482667  0.70595384    -0.19400
C2761       C  0.91405575  0.13069064  0.72934597    -0.07900
C2762       C  0.92939918  0.13231351  0.71643576    -0.03900
C2763       C  0.93192502  0.13728247  0.67892721    -0.09200
C2764       C  0.91948263  0.14137879  0.65566843    -0.16900
H2765       H  0.87594084  0.20674654  0.60330978     0.11300
H2766       H  0.88355635  0.18545196  0.64530354     0.10500
H2767       H  0.86761795  0.15241086  0.56243756     0.10500
H2768       H  0.85959199  0.17383597  0.52047525     0.11000
H2769       H  0.88991076  0.13422198  0.71699728     0.11100
H2770       H  0.91170395  0.12690392  0.75805539     0.11000
H2771       H  0.94355715  0.13865202  0.66801698     0.11200
H2772       H  0.92175548  0.14587314  0.62751026     0.10000
C2773       C  0.99030825  0.14944494  0.32822509    -0.03800
C2774       C  0.97984151  0.14262142  0.35382976    -0.09600
C2775       C  0.96704742  0.15094073  0.36705073    -0.17200
C2776       C  0.96456911  0.16618348  0.35498750     0.24900
C2777       C  0.97488723  0.17305052  0.32945387    -0.18900
C2778       C  0.98765417  0.16474469  0.31609150    -0.07800
C2779       C  0.95155498  0.17483796  0.36914491    -0.14200
C2780       C  0.94073476  0.18207780  0.38146332    -0.14000
C2781       C  0.92783685  0.19054594  0.39687469     0.24800
C2782       C  0.93001866  0.20540474  0.41181269    -0.19400
C2783       C  0.91757599  0.21342506  0.42788008    -0.07900
C2784       C  0.90278123  0.20664253  0.42928117    -0.03900
C2785       C  0.90067599  0.19177943  0.41371195    -0.09200
C2786       C  0.91312090  0.18380329  0.39764463    -0.16900
H2787       H  0.98152861  0.13085894  0.36363013     0.11300
H2788       H  0.95913072  0.14550838  0.38681517     0.10500
H2789       H  0.97309316  0.18484548  0.31995550     0.10500
H2790       H  0.99549318  0.17034003  0.29644074     0.11000
H2791       H  0.94137096  0.21073046  0.41138543     0.11100
H2792       H  0.91959057  0.22481841  0.43969594     0.11000
H2793       H  0.88944698  0.18621600  0.41435210     0.11200
H2794       H  0.91129503  0.17231024  0.38618065     0.10000
C2795       C  0.89048411  0.27786820  0.45103855    -0.03800
C2796       C  0.90551466  0.28000414  0.46563882    -0.09600
C2797       C  0.91477095  0.29229671  0.45306873    -0.17200
C2798       C  0.90916385  0.30266760  0.42578305     0.24900
C2799       C  0.89426876  0.30057547  0.41090331    -0.18900
C2800       C  0.88500804  0.28826836  0.42333870    -0.07800
C2801       C  0.91855051  0.31557173  0.41337494    -0.14200
C2802       C  0.92587662  0.32665314  0.40250571    -0.14000
C2803       C  0.93373442  0.34025648  0.38833848     0.24800
C2804       C  0.92582261  0.35436971  0.38636485    -0.19400
C2805       C  0.93289592  0.36736390  0.37021584    -0.07900
C2806       C  0.94803174  0.36646591  0.35562131    -0.03900
C2807       C  0.95610461  0.35235762  0.35880522    -0.09200
C2808       C  0.94898506  0.33934680  0.37501116    -0.16900
H2809       H  0.91012172  0.27219496  0.48686529     0.11300
H2810       H  0.92626942  0.29375980  0.46481285     0.10500
H2811       H  0.88977330  0.30850841  0.38978227     0.10500
H2812       H  0.87351602  0.28697555  0.41147272     0.11000
H2813       H  0.91403507  0.35525560  0.39658997     0.11100
H2814       H  0.92634414  0.37802077  0.36831983     0.11000
H2815       H  0.96776517  0.35125915  0.34790939     0.11200
H2816       H  0.95525735  0.32850350  0.37639059     0.10000
loop_ 
_geom_bond_atom_site_label_1 
_geom_bond_atom_site_label_2 
_geom_bond_distance 
_geom_bond_site_symmetry_2 
_ccdc_geom_bond_type 
O1          Cr19   1.981       .  S
O1            C9   1.260       .  A
O2          Cr19   2.019       .  S
O2            C3   1.270       .  A
C3            O4   1.260       .  A
C3         C2685   1.485       .  S
O4          Cr20   1.971       .  S
O5          Cr20   2.006       .  S
O5            C6   1.265       .  A
C6            O7   1.260       .  A
C6         C2784   1.482       .  S
O7          Cr21   1.980       .  S
O8          Cr21   2.009       .  S
O8            C9   1.265       .  A
C9         C2795   1.487       .  S
O10         Cr19   2.022       .  S
O10          C18   1.269       .  A
O11         Cr19   1.979       .  S
O11          C12   1.260       .  A
C12          O13   1.267       .  A
C12        C2729   1.488       .  S
O13         Cr20   2.017       .  S
O14         Cr20   1.984       .  S
O14          C15   1.263       .  A
C15          O16   1.267       .  A
C15        C2751   1.472       .  S
O16         Cr21   2.001       .  S
O17         Cr21   1.966       .  S
O17          C18   1.259       .  A
C18        C2707   1.486       .  S
Cr19         O22   1.775       .  S
Cr20         O22   1.778       .  S
Cr21         O22   1.771       .  S
O23         Cr41   2.008       .  S
O23          C31   1.265       .  A
O24         Cr41   1.970       .  S
O24          C25   1.262       .  A
C25          O26   1.271       .  A
C25        C2608   1.482       .  S
O26         Cr42   2.018       .  S
O27         Cr42   1.989       .  S
O27          C28   1.263       .  A
C28          O29   1.265       .  A
C28        C2641   1.487       .  S
O29         Cr43   2.003       .  S
O30         Cr43   1.981       .  S
O30          C31   1.260       .  A
C31        C2663   1.483       .  S
O32         Cr41   1.978       .  S
O32          C40   1.261       .  A
O33         Cr41   2.001       .  S
O33          C34   1.264       .  A
C34          O35   1.263       .  A
C34        C2740   1.489       .  S
O35         Cr42   1.997       .  S
O36         Cr42   2.019       .  S
O36          C37   1.268       .  A
C37          O38   1.259       .  A
C37        C2630   1.482       .  S
O38         Cr43   1.969       .  S
O39         Cr43   2.005       .  S
O39          C40   1.266       .  A
C40        C2586   1.479       .  S
Cr41         O44   1.770       .  S
Cr42         O44   1.774       .  S
Cr43         O44   1.768       .  S
O45         Cr63   2.021   1_554  S
O45          C53   1.270       .  A
O46         Cr63   1.976       .  S
O46          C47   1.259       .  A
C47          O48   1.266       .  A
C47        C2487   1.488       .  S
O48         Cr64   2.016       .  S
O49         Cr64   1.994   1_554  S
O49          C50   1.264       .  A
C50          O51   1.265       .  A
C50        C2531   1.484       .  S
O51         Cr65   1.996       .  S
O52         Cr65   1.969       .  S
O52          C53   1.260       .  A
C53        C2696   1.485       .  S
O54         Cr63   1.979       .  S
O54          C62   1.258       .  A
O55         Cr63   2.018       .  S
O55          C56   1.270       .  A
C56          O57   1.261       .  A
C56        C2718   1.487       .  S
O57         Cr64   1.972       .  S
O58         Cr64   2.013       .  S
O58          C59   1.268       .  A
C59          O60   1.263       .  A
C59        C2553   1.487       .  S
O60         Cr65   1.984   1_556  S
O61         Cr65   2.003   1_556  S
O61          C62   1.263       .  A
C62        C2520   1.483       .  S
Cr63         O66   1.775       .  S
Cr64         O66   1.776       .  S
Cr65         O66   1.770   1_554  S
O67         Cr85   1.980   1_556  S
O67          C75   1.262       .  A
O68         Cr85   2.002       .  S
O68          C69   1.264       .  A
C69          O70   1.262       .  A
C69        C2498   1.486       .  S
O70         Cr86   1.993       .  S
O71         Cr86   2.015       .  S
O71          C72   1.268   1_554  A
C72          O73   1.260       .  A
C72        C2443   1.482       .  S
O73         Cr87   1.972   1_556  S
O74         Cr87   2.007   1_556  S
O74          C75   1.267       .  A
C75        C2597   1.481       .  S
O76         Cr85   2.009       .  S
O76          C84   1.265       .  A
O77         Cr85   1.967       .  S
O77          C78   1.261       .  A
C78          O79   1.269       .  A
C78        C2575   1.478       .  S
O79         Cr86   2.014       .  S
O80         Cr86   1.986       .  S
O80          C81   1.262       .  A
C81          O82   1.265       .  A
C81        C2465   1.487       .  S
O82         Cr87   2.006       .  S
O83         Cr87   1.977       .  S
O83          C84   1.259       .  A
C84        C2432   1.481       .  S
Cr85         O88   1.771       .  S
Cr86         O88   1.773       .  S
Cr87         O88   1.767       .  S
O89        Cr107   2.017       .  S
O89          C97   1.269       .  A
O90        Cr107   1.981       .  S
O90          C91   1.259       .  A
C91          O92   1.267       .  A
C91        C2410   1.491       .  S
O92        Cr108   2.019       .  S
O93        Cr108   1.990       .  S
O93          C94   1.264       .  A
C94          O95   1.266       .  A
C94        C2454   1.479       .  S
O95        Cr109   1.996       .  S
O96        Cr109   1.965       .  S
O96          C97   1.259       .  A
C97        C2377   1.482       .  S
O98        Cr107   1.983       .  S
O98         C106   1.259       .  A
O99        Cr107   2.014       .  S
O99         C100   1.269       .  A
C100        O101   1.261       .  A
C100       C2355   1.481       .  S
O101       Cr108   1.970       .  S
O102       Cr108   2.013       .  S
O102        C103   1.268       .  A
C103        O104   1.262       .  A
C103       C2674   1.484       .  S
O104       Cr109   1.982       .  S
O105       Cr109   2.004       .  S
O105        C106   1.263       .  A
C106       C2344   1.486       .  S
Cr107       O110   1.773       .  S
Cr108       O110   1.775       .  S
Cr109       O110   1.769       .  S
O111       Cr129   2.020       .  S
O111        C119   1.270       .  A
O112       Cr129   1.975       .  S
O112        C113   1.259       .  A
C113        O114   1.269       .  A
C113       C2399   1.492       .  S
O114       Cr130   2.025       .  S
O115       Cr130   1.995       .  S
O115        C116   1.264       .  A
C116        O117   1.264       .  A
C116       C2245   1.476       .  S
O117       Cr131   1.993       .  S
O118       Cr131   1.967       .  S
O118        C119   1.260       .  A
C119       C2311   1.484       .  S
O120       Cr129   1.986       .  S
O120        C128   1.260       .  A
O121       Cr129   2.015       .  S
O121        C122   1.268       .  A
C122        O123   1.261       .  A
C122       C2300   1.489       .  S
O123       Cr130   1.979       .  S
O124       Cr130   2.011       .  S
O124        C125   1.268       .  A
C125        O126   1.262       .  A
C125       C2223   1.482       .  S
O126       Cr131   1.978       .  S
O127       Cr131   2.007       .  S
O127        C128   1.264       .  A
C128       C2267   1.488       .  S
Cr129       O132   1.774       .  S
Cr130       O132   1.778       .  S
Cr131       O132   1.772       .  S
O133       Cr151   2.015       .  S
O133        C141   1.267       .  A
O134       Cr151   1.967       .  S
O134        C135   1.260       .  A
C135        O136   1.270       .  A
C135       C2388   1.481       .  S
O136       Cr152   2.019       .  S
O137       Cr152   1.980       .  S
O137        C138   1.261       .  A
C138        O139   1.265       .  A
C138       C2157   1.480       .  S
O139       Cr153   2.002       .  S
O140       Cr153   1.980       .  S
O140        C141   1.260       .  A
C141       C2476   1.485       .  S
O142       Cr151   1.978       .  S
O142        C150   1.261       .  A
O143       Cr151   2.006       .  S
O143        C144   1.266       .  A
C144        O145   1.262       .  A
C144       C2201   1.486       .  S
O145       Cr152   1.988       .  S
O146       Cr152   2.016       .  S
O146        C147   1.268       .  A
C147        O148   1.260       .  A
C147       C2190   1.481       .  S
O148       Cr153   1.972       .  S
O149       Cr153   2.006       .  S
O149        C150   1.267       .  A
C150       C2366   1.479       .  S
Cr151       O154   1.767       .  S
Cr152       O154   1.771       .  S
Cr153       O154   1.765       .  S
O155       Cr173   2.015       .  S
O155        C163   1.267       .  A
O156       Cr173   1.977       .  S
O156        C157   1.262       .  A
C157        O158   1.268       .  A
C157       C2322   1.485       .  S
O158       Cr174   2.015       .  S
O159       Cr174   1.984       .  S
O159        C160   1.261       .  A
C160        O161   1.266       .  A
C160       C2124   1.485       .  S
O161       Cr175   2.006       .  S
O162       Cr175   1.977       .  S
O162        C163   1.260       .  A
C163       C2102   1.485       .  S
O164       Cr173   1.987       .  S
O164        C172   1.262       .  A
O165       Cr173   2.004       .  S
O165        C166   1.266       .  A
C166        O167   1.262       .  A
C166       C2212   1.485       .  S
O167       Cr174   1.986       .  S
O168       Cr174   2.017       .  S
O168        C169   1.269       .  A
C169        O170   1.261       .  A
C169       C2135   1.485       .  S
O170       Cr175   1.974       .  S
O171       Cr175   2.011       .  S
O171        C172   1.267       .  A
C172       C2289   1.489       .  S
Cr173       O176   1.771       .  S
Cr174       O176   1.774       .  S
Cr175       O176   1.769       .  S
O177       Cr195   1.978       .  S
O177        C185   1.259       .  A
O178       Cr195   2.011       .  S
O178        C179   1.268       .  A
C179        O180   1.260       .  A
C179       C2025   1.481       .  S
O180       Cr196   1.970       .  S
O181       Cr196   2.015       .  S
O181        C182   1.269       .  A
C182        O183   1.264       .  A
C182       C2278   1.488       .  S
O183       Cr197   1.984   1_556  S
O184       Cr197   2.017   1_556  S
O184        C185   1.266       .  A
C185       C2003   1.489       .  S
O186       Cr195   2.016   1_554  S
O186        C194   1.268       .  A
O187       Cr195   1.973       .  S
O187        C188   1.258       .  A
C188        O189   1.269       .  A
C188       C2080   1.490       .  S
O189       Cr196   2.027       .  S
O190       Cr196   1.991   1_554  S
O190        C191   1.264       .  A
C191        O192   1.266       .  A
C191       C2146   1.476       .  S
O192       Cr197   1.997       .  S
O193       Cr197   1.969       .  S
O193        C194   1.259       .  A
C194       C2058   1.483       .  S
Cr195       O198   1.773       .  S
Cr196       O198   1.778       .  S
Cr197       O198   1.770   1_554  S
O199       Cr217   2.010       .  S
O199        C207   1.266       .  A
O200       Cr217   1.975       .  S
O200        C201   1.262       .  A
C201        O202   1.268       .  A
C201       C1992   1.482       .  S
O202       Cr218   2.012       .  S
O203       Cr218   1.993       .  S
O203        C204   1.264       .  A
C204        O205   1.265       .  A
C204       C1948   1.487       .  S
O205       Cr219   2.000       .  S
O206       Cr219   1.979       .  S
O206        C207   1.260       .  A
C207       C1893   1.482       .  S
O208       Cr217   1.980   1_556  S
O208        C216   1.261       .  A
O209       Cr217   2.004       .  S
O209        C210   1.265       .  A
C210        O211   1.264       .  A
C210       C2069   1.490       .  S
O211       Cr218   1.996       .  S
O212       Cr218   2.014       .  S
O212        C213   1.267   1_554  A
C213        O214   1.260       .  A
C213       C1915   1.482       .  S
O214       Cr219   1.973   1_556  S
O215       Cr219   2.006   1_556  S
O215        C216   1.266       .  A
C216       C1970   1.480       .  S
Cr217       O220   1.770       .  S
Cr218       O220   1.773       .  S
Cr219       O220   1.768       .  S
O221       Cr239   1.983       .  S
O221        C229   1.261       .  A
O222       Cr239   2.007       .  S
O222        C223   1.266       .  A
C223        O224   1.262       .  A
C223       C1871   1.488       .  S
O224       Cr240   1.988       .  S
O225       Cr240   2.008       .  S
O225        C226   1.267       .  A
C226        O227   1.261       .  A
C226       C1827   1.480       .  S
O227       Cr241   1.977       .  S
O228       Cr241   2.004       .  S
O228        C229   1.266       .  A
C229       C2036   1.482       .  S
O230       Cr239   2.016       .  S
O230        C238   1.268       .  A
O231       Cr239   1.976       .  S
O231        C232   1.262       .  A
C232        O233   1.267       .  A
C232       C2047   1.482       .  S
O233       Cr240   2.009       .  S
O234       Cr240   1.988       .  S
O234        C235   1.263       .  A
C235        O236   1.265       .  A
C235       C1849   1.486       .  S
O236       Cr241   2.003       .  S
O237       Cr241   1.977       .  S
O237        C238   1.260       .  A
C238       C2113   1.484       .  S
Cr239       O242   1.772       .  S
Cr240       O242   1.773       .  S
Cr241       O242   1.769       .  S
O243       Cr261   1.978       .  S
O243        C251   1.262       .  A
O244       Cr261   2.005       .  S
O244        C245   1.265       .  A
C245        O246   1.263       .  A
C245       C1882   1.489       .  S
O246       Cr262   1.995       .  S
O247       Cr262   2.011       .  S
O247        C248   1.267       .  A
C248        O249   1.261       .  A
C248       C1772   1.485       .  S
O249       Cr263   1.979       .  S
O250       Cr263   2.010       .  S
O250        C251   1.268       .  A
C251       C1981   1.481       .  S
O252       Cr261   2.013       .  S
O252        C260   1.265       .  A
O253       Cr261   1.970       .  S
O253        C254   1.261       .  A
C254        O255   1.269       .  A
C254       C1959   1.481       .  S
O255       Cr262   2.016       .  S
O256       Cr262   1.986       .  S
O256        C257   1.262       .  A
C257        O258   1.266       .  A
C257       C1783   1.485       .  S
O258       Cr263   2.004       .  S
O259       Cr263   1.978       .  S
O259        C260   1.259       .  A
C260       C1816   1.485       .  S
Cr261       O264   1.771       .  S
Cr262       O264   1.773       .  S
Cr263       O264   1.768       .  S
O265       Cr283   2.016       .  S
O265        C273   1.268       .  A
O266       Cr283   1.971       .  S
O266        C267   1.261       .  A
C267        O268   1.269       .  A
C267       C1651   1.482       .  S
O268       Cr284   2.016       .  S
O269       Cr284   1.987       .  S
O269        C270   1.262       .  A
C270        O271   1.264       .  A
C270       C1717   1.483       .  S
O271       Cr285   1.998       .  S
O272       Cr285   1.980       .  S
O272        C273   1.261       .  A
C273       C2564   1.487   1_455  S
O274       Cr283   1.985       .  S
O274        C282   1.262       .  A
O275       Cr283   2.008       .  S
O275        C276   1.266       .  A
C276        O277   1.261       .  A
C276       C1695   1.485       .  S
O277       Cr284   1.986       .  S
O278       Cr284   2.012       .  S
O278        C279   1.268       .  A
C279        O280   1.262       .  A
C279       C1750   1.483       .  S
O280       Cr285   1.977       .  S
O281       Cr285   2.001       .  S
O281        C282   1.265       .  A
C282       C1673   1.481       .  S
Cr283       O286   1.772       .  S
Cr284       O286   1.773       .  S
Cr285       O286   1.767       .  S
O287       Cr305   2.011   1_655  S
O287        C295   1.267       .  A
O288       Cr305   1.970       .  S
O288        C289   1.260       .  A
C289        O290   1.268       .  A
C289       C1618   1.479       .  S
O290       Cr306   2.014       .  S
O291       Cr306   1.982       .  S
O291        C292   1.261       .  A
C292        O293   1.266       .  A
C292       C1805   1.483       .  S
O293       Cr307   2.008       .  S
O294       Cr307   1.973       .  S
O294        C295   1.259   1_455  A
C295       C1596   1.480       .  S
O296       Cr305   1.980       .  S
O296        C304   1.261       .  A
O297       Cr305   2.008       .  S
O297        C298   1.266       .  A
C298        O299   1.262       .  A
C298       C1706   1.484       .  S
O299       Cr306   1.983       .  S
O300       Cr306   2.018       .  S
O300        C301   1.269       .  A
C301        O302   1.260       .  A
C301       C1926   1.481       .  S
O302       Cr307   1.970       .  S
O303       Cr307   2.008       .  S
O303        C304   1.267       .  A
C304       C1629   1.481       .  S
Cr305       O308   1.768       .  S
Cr306       O308   1.769       .  S
Cr307       O308   1.765       .  S
O309       Cr327   2.015       .  S
O309        C317   1.269       .  A
O310       Cr327   1.975       .  S
O310        C311   1.259       .  A
C311        O312   1.269       .  A
C311       C1541   1.492       .  S
O312       Cr328   2.027       .  S
O313       Cr328   1.989       .  S
O313        C314   1.264       .  A
C314        O315   1.266       .  A
C314       C2542   1.480       .  S
O315       Cr329   2.000       .  S
O316       Cr329   1.968       .  S
O316        C317   1.260       .  A
C317       C1662   1.482       .  S
O318       Cr327   1.984   1_455  S
O318        C326   1.260       .  A
O319       Cr327   2.013       .  S
O319        C320   1.268       .  A
C320        O321   1.260       .  A
C320       C1684   1.480       .  S
O321       Cr328   1.969       .  S
O322       Cr328   2.016       .  S
O322        C323   1.269       .  A
C323        O324   1.262       .  A
C323       C2806   1.487       .  S
O324       Cr329   1.982       .  S
O325       Cr329   2.008       .  S
O325        C326   1.265   1_655  A
C326       C1563   1.488       .  S
Cr327       O330   1.774       .  S
Cr328       O330   1.777       .  S
Cr329       O330   1.770       .  S
O331       Cr349   2.018       .  S
O331        C339   1.269       .  A
O332       Cr349   1.976       .  S
O332        C333   1.260       .  A
C333        O334   1.269       .  A
C333       C1552   1.492       .  S
O334       Cr350   2.025       .  S
O335       Cr350   1.992       .  S
O335        C336   1.263       .  A
C336        O337   1.265       .  A
C336       C1530   1.481       .  S
O337       Cr351   1.999       .  S
O338       Cr351   1.963       .  S
O338        C339   1.259       .  A
C339       C1607   1.480       .  S
O340       Cr349   1.982       .  S
O340        C348   1.259   1_655  A
O341       Cr349   2.012       .  S
O341        C342   1.268       .  A
C342        O343   1.261       .  A
C342       C1640   1.481       .  S
O343       Cr350   1.971       .  S
O344       Cr350   2.020       .  S
O344        C345   1.270       .  A
C345        O346   1.261       .  A
C345       C1497   1.486       .  S
O346       Cr351   1.977       .  S
O347       Cr351   2.007       .  S
O347        C348   1.264   1_655  A
C348       C1937   1.486       .  S
Cr349       O352   1.774       .  S
Cr350       O352   1.775       .  S
Cr351       O352   1.770       .  S
O353       Cr371   1.980       .  S
O353        C361   1.259       .  A
O354       Cr371   2.015       .  S
O354        C355   1.269       .  A
C355        O356   1.261       .  A
C355       C1431   1.481       .  S
O356       Cr372   1.972       .  S
O357       Cr372   2.011       .  S
O357        C358   1.267       .  A
C358        O359   1.261       .  A
C358       C2421   1.481       .  S
O359       Cr373   1.977       .  S
O360       Cr373   1.997       .  S
O360        C361   1.262       .  A
C361       C1420   1.480       .  S
O362       Cr371   2.018       .  S
O362        C370   1.269       .  A
O363       Cr371   1.973       .  S
O363        C364   1.258       .  A
C364        O365   1.267       .  A
C364       C1486   1.487       .  S
O365       Cr372   2.020       .  S
O366       Cr372   1.990       .  S
O366        C367   1.264       .  A
C367        O368   1.265       .  A
C367       C2619   1.478       .  S
O368       Cr373   1.993       .  S
O369       Cr373   1.961       .  S
O369        C370   1.259       .  A
C370       C1464   1.478       .  S
Cr371       O374   1.771       .  S
Cr372       O374   1.773       .  S
Cr373       O374   1.768       .  S
O375       Cr393   2.013       .  S
O375        C383   1.266       .  A
O376       Cr393   1.969       .  S
O376        C377   1.261       .  A
C377        O378   1.269       .  A
C377       C1387   1.480       .  S
O378       Cr394   2.014       .  S
O379       Cr394   1.983       .  S
O379        C380   1.261       .  A
C380        O381   1.266       .  A
C380       C1321   1.485       .  S
O381       Cr395   2.007       .  S
O382       Cr395   1.983       .  S
O382        C383   1.261       .  A
C383       C1860   1.487       .  S
O384       Cr393   1.979       .  S
O384        C392   1.261       .  A
O385       Cr393   2.008       .  S
O385        C386   1.266       .  A
C386        O387   1.261       .  A
C386       C1475   1.488       .  S
O387       Cr394   1.987       .  S
O388       Cr394   2.013       .  S
O388        C389   1.268       .  A
C389        O390   1.261       .  A
C389       C1343   1.484       .  S
O390       Cr395   1.975       .  S
O391       Cr395   2.010       .  S
O391        C392   1.268       .  A
C392       C1365   1.483       .  S
Cr393       O396   1.772       .  S
Cr394       O396   1.775       .  S
Cr395       O396   1.769       .  S
O397       Cr415   1.981       .  S
O397        C405   1.262       .  A
O398       Cr415   2.005       .  S
O398        C399   1.265       .  A
C399        O400   1.262       .  A
C399       C1299   1.488       .  S
O400       Cr416   1.992       .  S
O401       Cr416   2.019       .  S
O401        C402   1.269       .  A
C402        O403   1.260       .  A
C402       C1288   1.484       .  S
O403       Cr417   1.971       .  S
O404       Cr417   2.007       .  S
O404        C405   1.268       .  A
C405       C1442   1.481       .  S
O406       Cr415   2.014       .  S
O406        C414   1.266       .  A
O407       Cr415   1.969       .  S
O407        C408   1.261       .  A
C408        O409   1.270       .  A
C408       C1453   1.481       .  S
O409       Cr416   2.017       .  S
O410       Cr416   1.985       .  S
O410        C411   1.261       .  A
C411        O412   1.265       .  A
C411       C1255   1.485       .  S
O412       Cr417   2.005       .  S
O413       Cr417   1.983       .  S
O413        C414   1.261       .  A
C414       C2652   1.486       .  S
Cr415       O418   1.771       .  S
Cr416       O418   1.772       .  S
Cr417       O418   1.765       .  S
O419       Cr437   1.979       .  S
O419        C427   1.261       .  A
O420       Cr437   1.999       .  S
O420        C421   1.264       .  A
C421        O422   1.262       .  A
C421       C1310   1.486       .  S
O422       Cr438   1.993       .  S
O423       Cr438   2.013       .  S
O423        C424   1.268       .  A
C424        O425   1.260       .  A
C424       C1838   1.481       .  S
O425       Cr439   1.971       .  S
O426       Cr439   2.007       .  S
O426        C427   1.266       .  A
C427       C1398   1.480       .  S
O428       Cr437   2.007       .  S
O428        C436   1.266       .  A
O429       Cr437   1.971       .  S
O429        C430   1.262       .  A
C430        O431   1.270       .  A
C430       C1376   1.483       .  S
O431       Cr438   2.019       .  S
O432       Cr438   1.990       .  S
O432        C433   1.263       .  A
C433        O434   1.266       .  A
C433       C2014   1.489       .  S
O434       Cr439   2.006       .  S
O435       Cr439   1.978       .  S
O435        C436   1.260       .  A
C436       C1233   1.481       .  S
Cr437       O440   1.769       .  S
Cr438       O440   1.772       .  S
Cr439       O440   1.768       .  S
O441       Cr459   2.018       .  S
O441        C449   1.267       .  A
O442       Cr459   1.970       .  S
O442        C443   1.261       .  A
C443        O444   1.269       .  A
C443       C1123   1.482       .  S
O444       Cr460   2.018       .  S
O445       Cr460   1.980       .  S
O445        C446   1.261       .  A
C446        O447   1.266       .  A
C446       C1222   1.482       .  S
O447       Cr461   2.005       .  S
O448       Cr461   1.977       .  S
O448        C449   1.259       .  A
C449       C1508   1.486       .  S
O450       Cr459   1.978   1_556  S
O450        C458   1.261       .  A
O451       Cr459   2.011       .  S
O451        C452   1.267       .  A
C452        O453   1.263       .  A
C452       C1167   1.489       .  S
O453       Cr460   1.988       .  S
O454       Cr460   2.017       .  S
O454        C455   1.268   1_554  A
C455        O456   1.259       .  A
C455       C1189   1.483       .  S
O456       Cr461   1.971   1_556  S
O457       Cr461   2.010   1_556  S
O457        C458   1.268       .  A
C458       C1156   1.483       .  S
Cr459       O462   1.770       .  S
Cr460       O462   1.774       .  S
Cr461       O462   1.767       .  S
O463       Cr481   1.981       .  S
O463        C471   1.259       .  A
O464       Cr481   2.009       .  S
O464        C465   1.267       .  A
C465        O466   1.260       .  A
C465       C1101   1.482       .  S
O466       Cr482   1.973       .  S
O467       Cr482   2.018       .  S
O467        C468   1.270       .  A
C468        O469   1.261       .  A
C468       C1244   1.481       .  S
O469       Cr483   1.972   1_556  S
O470       Cr483   2.004   1_556  S
O470        C471   1.263       .  A
C471       C2234   1.481       .  S
O472       Cr481   2.018   1_554  S
O472        C480   1.269       .  A
O473       Cr481   1.970   1_554  S
O473        C474   1.259   1_554  A
C474        O475   1.270       .  A
C474       C1178   1.489       .  S
O475       Cr482   2.028       .  S
O476       Cr482   1.993   1_554  S
O476        C477   1.264       .  A
C477        O478   1.264       .  A
C477       C1354   1.477       .  S
O478       Cr483   1.993       .  S
O479       Cr483   1.962       .  S
O479        C480   1.259       .  A
C480       C1079   1.479       .  S
Cr481       O484   1.770       .  S
Cr482       O484   1.775       .  S
Cr483       O484   1.766   1_554  S
O485       Cr503   2.018       .  S
O485        C493   1.269       .  A
O486       Cr503   1.970       .  S
O486        C487   1.259       .  A
C487        O488   1.268       .  A
C487       C1035   1.486       .  S
O488       Cr504   2.018       .  S
O489       Cr504   1.988       .  S
O489        C490   1.263       .  A
C490        O491   1.265       .  A
C490       C1519   1.475       .  S
O491       Cr505   1.998       .  S
O492       Cr505   1.965       .  S
O492        C493   1.259       .  A
C493       C1134   1.481       .  S
O494       Cr503   1.978       .  S
O494        C502   1.258       .  A
O495       Cr503   2.013       .  S
O495        C496   1.268       .  A
C496        O497   1.261       .  A
C496       C1145   1.484       .  S
O497       Cr504   1.974       .  S
O498       Cr504   2.010       .  S
O498        C499   1.267       .  A
C499        O500   1.261       .  A
C499       C1585   1.481       .  S
O500       Cr505   1.977       .  S
O501       Cr505   2.008       .  S
O501        C502   1.264       .  A
C502       C1057   1.484       .  S
Cr503       O506   1.773       .  S
Cr504       O506   1.777       .  S
Cr505       O506   1.771       .  S
O507       Cr525   1.981       .  S
O507        C515   1.262       .  A
O508       Cr525   2.010       .  S
O508        C509   1.267       .  A
C509        O510   1.261       .  A
C509       C1046   1.486       .  S
O510       Cr526   1.982       .  S
O511       Cr526   2.010       .  S
O511        C512   1.267       .  A
C512        O513   1.261       .  A
C512       C2256   1.483       .  S
O513       Cr527   1.978       .  S
O514       Cr527   2.007       .  S
O514        C515   1.267       .  A
C515       C1112   1.482       .  S
O516       Cr525   2.012       .  S
O516        C524   1.266       .  A
O517       Cr525   1.975       .  S
O517        C518   1.261       .  A
C518        O519   1.267       .  A
C518       C1090   1.478       .  S
O519       Cr526   2.012       .  S
O520       Cr526   1.983       .  S
O520        C521   1.262       .  A
C521        O522   1.266       .  A
C521       C2091   1.484       .  S
O522       Cr527   2.006       .  S
O523       Cr527   1.982       .  S
O523        C524   1.261       .  A
C524       C1332   1.486       .  S
Cr525       O528   1.770       .  S
Cr526       O528   1.772       .  S
Cr527       O528   1.768       .  S
O529       Cr547   2.008       .  S
O529        C537   1.265       .  A
O530       Cr547   1.968       .  S
O530        C531   1.261       .  A
C531        O532   1.269       .  A
C531        C980   1.479       .  S
O532       Cr548   2.015       .  S
O533       Cr548   1.986       .  S
O533        C534   1.263       .  A
C534        O535   1.266       .  A
C534       C2333   1.486       .  S
O535       Cr549   2.005       .  S
O536       Cr549   1.984       .  S
O536        C537   1.261       .  A
C537       C1266   1.485       .  S
O538       Cr547   1.979       .  S
O538        C546   1.262       .  A
O539       Cr547   2.003       .  S
O539        C540   1.265       .  A
C540        O541   1.263       .  A
C540       C1013   1.488       .  S
O541       Cr548   1.994       .  S
O542       Cr548   2.011       .  S
O542        C543   1.267       .  A
C543        O544   1.261       .  A
C543       C2179   1.481       .  S
O544       Cr549   1.975       .  S
O545       Cr549   2.009       .  S
O545        C546   1.268       .  A
C546        C991   1.483       .  S
Cr547       O550   1.769       .  S
Cr548       O550   1.774       .  S
Cr549       O550   1.768       .  S
O551       Cr569   2.008       .  S
O551        C559   1.266       .  A
O552       Cr569   1.979       .  S
O552        C553   1.263       .  A
C553        O554   1.271       .  A
C553        C947   1.489       .  S
O554       Cr570   2.022       .  S
O555       Cr570   1.986       .  S
O555        C556   1.262       .  A
C556        O557   1.266       .  A
C556       C1574   1.488       .  S
O557       Cr571   2.008       .  S
O558       Cr571   1.983       .  S
O558        C559   1.261       .  A
C559        C914   1.484       .  S
O560       Cr569   1.983       .  S
O560        C568   1.262       .  A
O561       Cr569   2.005       .  S
O561        C562   1.265       .  A
C562        O563   1.261       .  A
C562       C1024   1.488       .  S
O563       Cr570   1.990       .  S
O564       Cr570   2.017       .  S
O564        C565   1.269       .  A
C565        O566   1.260       .  A
C565       C1739   1.484       .  S
O566       Cr571   1.972       .  S
O567       Cr571   2.010       .  S
O567        C568   1.268       .  A
C568        C925   1.484       .  S
Cr569       O572   1.771       .  S
Cr570       O572   1.774       .  S
Cr571       O572   1.770       .  S
O573       Cr591   1.979   1_556  S
O573        C581   1.262       .  A
O574       Cr591   2.001       .  S
O574        C575   1.263       .  A
C575        O576   1.260       .  A
C575        C892   1.482       .  S
O576       Cr592   1.987       .  S
O577       Cr592   2.021       .  S
O577        C578   1.270   1_554  A
C578        O579   1.260       .  A
C578       C1277   1.484       .  S
O579       Cr593   1.968   1_556  S
O580       Cr593   2.003   1_556  S
O580        C581   1.266       .  A
C581        C969   1.478       .  S
O582       Cr591   2.009       .  S
O582        C590   1.266       .  A
O583       Cr591   1.968       .  S
O583        C584   1.262       .  A
C584        O585   1.272       .  A
C584       C1002   1.484       .  S
O585       Cr592   2.024       .  S
O586       Cr592   1.982       .  S
O586        C587   1.261       .  A
C587        O588   1.264       .  A
C587       C1409   1.480       .  S
O588       Cr593   1.995       .  S
O589       Cr593   1.977       .  S
O589        C590   1.259       .  A
C590       C2168   1.479       .  S
Cr591       O594   1.769       .  S
Cr592       O594   1.771       .  S
Cr593       O594   1.766       .  S
O595       Cr613   2.023   1_554  S
O595        C603   1.270       .  A
O596       Cr613   1.967       .  S
O596        C597   1.258       .  A
C597        O598   1.268       .  A
C597        C881   1.484       .  S
O598       Cr614   2.020       .  S
O599       Cr614   1.987   1_554  S
O599        C600   1.263       .  A
C600        O601   1.266       .  A
C600        C848   1.481       .  S
O601       Cr615   1.999   1_554  S
O602       Cr615   1.974   1_554  S
O602        C603   1.261       .  A
C603        C958   1.489       .  S
O604       Cr613   1.977       .  S
O604        C612   1.258       .  A
O605       Cr613   2.015       .  S
O605        C606   1.268       .  A
C606        O607   1.260       .  A
C606        C936   1.483       .  S
O607       Cr614   1.972       .  S
O608       Cr614   2.014       .  S
O608        C609   1.268       .  A
C609        O610   1.263       .  A
C609        C870   1.486       .  S
O610       Cr615   1.982       .  S
O611       Cr615   2.008       .  S
O611        C612   1.265       .  A
C612       C1728   1.484       .  S
Cr613       O616   1.774       .  S
Cr614       O616   1.778       .  S
Cr615       O616   1.770       .  S
O617       Cr635   2.011   1_455  S
O617        C625   1.266       .  A
O618       Cr635   1.973       .  S
O618        C619   1.261       .  A
C619        O620   1.270       .  A
C619        C771   1.485       .  S
O620       Cr636   2.018       .  S
O621       Cr636   1.983       .  S
O621        C622   1.261       .  A
C622        O623   1.264       .  A
C622       C2509   1.482       .  S
O623       Cr637   2.001       .  S
O624       Cr637   1.983       .  S
O624        C625   1.261   1_655  A
C625        C859   1.486       .  S
O626       Cr635   1.984       .  S
O626        C634   1.262       .  A
O627       Cr635   2.006       .  S
O627        C628   1.265       .  A
C628        O629   1.260       .  A
C628        C815   1.486       .  S
O629       Cr636   1.985       .  S
O630       Cr636   2.016       .  S
O630        C631   1.269       .  A
C631        O632   1.262       .  A
C631       C2762   1.485       .  S
O632       Cr637   1.975       .  S
O633       Cr637   2.006       .  S
O633        C634   1.266       .  A
C634        C793   1.482       .  S
Cr635       O638   1.770       .  S
Cr636       O638   1.774       .  S
Cr637       O638   1.769       .  S
O639       Cr657   2.014   1_455  S
O639        C647   1.267       .  A
O640       Cr657   1.967       .  S
O640        C641   1.261       .  A
C641        O642   1.270       .  A
C641        C749   1.480       .  S
O642       Cr658   2.017       .  S
O643       Cr658   1.986       .  S
O643        C644   1.262       .  A
C644        O645   1.265       .  A
C644       C1068   1.484       .  S
O645       Cr659   2.002       .  S
O646       Cr659   1.981       .  S
O646        C647   1.261   1_655  A
C647       C1794   1.486       .  S
O648       Cr657   1.980       .  S
O648        C656   1.261       .  A
O649       Cr657   2.002       .  S
O649        C650   1.264       .  A
C650        O651   1.262       .  A
C650        C826   1.486       .  S
O651       Cr658   1.990       .  S
O652       Cr658   2.015       .  S
O652        C653   1.269       .  A
C653        O654   1.261       .  A
C653       C1200   1.483       .  S
O654       Cr659   1.973       .  S
O655       Cr659   2.007       .  S
O655        C656   1.267       .  A
C656        C727   1.481       .  S
Cr657       O660   1.770       .  S
Cr658       O660   1.772       .  S
Cr659       O660   1.767       .  S
O661       Cr679   2.022       .  S
O661        C669   1.270       .  A
O662       Cr679   1.976       .  S
O662        C663   1.259       .  A
C663        O664   1.266       .  A
C663        C716   1.486       .  S
O664       Cr680   2.016       .  S
O665       Cr680   1.995       .  S
O665        C666   1.265       .  A
C666        O667   1.266       .  A
C666        C837   1.481       .  S
O667       Cr681   1.995       .  S
O668       Cr681   1.968       .  S
O668        C669   1.260       .  A
C669        C782   1.486       .  S
O670       Cr679   1.977       .  S
O670        C678   1.258       .  A
O671       Cr679   2.016       .  S
O671        C672   1.270       .  A
C672        O673   1.261       .  A
C672        C804   1.483       .  S
O673       Cr680   1.971       .  S
O674       Cr680   2.013       .  S
O674        C675   1.267       .  A
C675        O676   1.261       .  A
C675        C903   1.484       .  S
O676       Cr681   1.980       .  S
O677       Cr681   2.002       .  S
O677        C678   1.263       .  A
C678       C2773   1.482   1_455  S
Cr679       O682   1.773       .  S
Cr680       O682   1.777       .  S
Cr681       O682   1.767       .  S
O683       Cr701   1.980       .  S
O683        C691   1.260       .  A
O684       Cr701   2.000       .  S
O684        C685   1.265       .  A
C685        O686   1.263       .  A
C685        C705   1.485       .  S
O686       Cr702   1.990       .  S
O687       Cr702   2.017       .  S
O687        C688   1.268       .  A
C688        O689   1.260       .  A
C688       C1761   1.484       .  S
O689       Cr703   1.974       .  S
O690       Cr703   2.003       .  S
O690        C691   1.266       .  A
C691        C760   1.479       .  S
O692       Cr701   2.012   1_655  S
O692        C700   1.266       .  A
O693       Cr701   1.973       .  S
O693        C694   1.262       .  A
C694        O695   1.270       .  A
C694        C738   1.482       .  S
O695       Cr702   2.016       .  S
O696       Cr702   1.986       .  S
O696        C697   1.263       .  A
C697        O698   1.264       .  A
C697       C1904   1.482       .  S
O698       Cr703   1.999       .  S
O699       Cr703   1.977       .  S
O699        C700   1.260   1_455  A
C700       C1211   1.482       .  S
Cr701       O704   1.770       .  S
Cr702       O704   1.772       .  S
Cr703       O704   1.767       .  S
C705        C706   1.408       .  A
C705        C710   1.408       .  A
C706        C707   1.396       .  A
C706        H719   1.083       .  S
C707        C708   1.398       .  A
C707        H720   1.084       .  S
C708        C709   1.402       .  A
C708        C711   1.444   1_565  S
C709        C710   1.404       .  A
C709        H721   1.083       .  S
C710        H722   1.083       .  S
C711        C712   1.209       .  T
C712        C713   1.444       .  S
C713        C714   1.401       .  A
C713        C718   1.400       .  A
C714        C715   1.402       .  A
C714        H723   1.083       .  S
C715        C716   1.409       .  A
C715        H724   1.083       .  S
C716        C717   1.408       .  A
C717        C718   1.399       .  A
C717        H725   1.083       .  S
C718        H726   1.084       .  S
C727        C728   1.409   1_655  A
C727        C732   1.407   1_655  A
C728        C729   1.402       .  A
C728        H741   1.083   1_455  S
C729        C730   1.401       .  A
C729        H742   1.083       .  S
C730        C731   1.398       .  A
C730        C733   1.440       .  S
C731        C732   1.394       .  A
C731        H743   1.084       .  S
C732        H744   1.083   1_455  S
C733        C734   1.206       .  T
C734        C735   1.440   1_556  S
C735        C736   1.399       .  A
C735        C740   1.400       .  A
C736        C737   1.399       .  A
C736        H745   1.083       .  S
C737        C738   1.408       .  A
C737        H746   1.083       .  S
C738        C739   1.408       .  A
C739        C740   1.398       .  A
C739        H747   1.083   1_455  S
C740        H748   1.084   1_455  S
C749        C750   1.407       .  A
C749        C754   1.408       .  A
C750        C751   1.395       .  A
C750        H763   1.083   1_655  S
C751        C752   1.398       .  A
C751        H764   1.084   1_655  S
C752        C753   1.400       .  A
C752        C755   1.438       .  S
C753        C754   1.400       .  A
C753        H765   1.083       .  S
C754        H766   1.083       .  S
C755        C756   1.205       .  T
C756        C757   1.437       .  S
C757        C758   1.397       .  A
C757        C762   1.401       .  A
C758        C759   1.394   1_655  A
C758        H767   1.084       .  S
C759        C760   1.407       .  A
C759        H768   1.083       .  S
C760        C761   1.408       .  A
C761        C762   1.401   1_455  A
C761        H769   1.083       .  S
C762        H770   1.083       .  S
C771        C772   1.408       .  A
C771        C776   1.408       .  A
C772        C773   1.398       .  A
C772        H785   1.083   1_655  S
C773        C774   1.400       .  A
C773        H786   1.084   1_655  S
C774        C775   1.401       .  A
C774        C777   1.444   1_556  S
C775        C776   1.402       .  A
C775        H787   1.083   1_556  S
C776        H788   1.083       .  S
C777        C778   1.209       .  T
C778        C779   1.444       .  S
C779        C780   1.402       .  A
C779        C784   1.399   1_655  A
C780        C781   1.403       .  A
C780        H789   1.083       .  S
C781        C782   1.408   1_655  A
C781        H790   1.083       .  S
C782        C783   1.409       .  A
C783        C784   1.397       .  A
C783        H791   1.083       .  S
C784        H792   1.084       .  S
C793        C794   1.408   1_655  A
C793        C798   1.407       .  A
C794        C795   1.397       .  A
C794        H807   1.083   1_455  S
C795        C796   1.399       .  A
C795        H808   1.084       .  S
C796        C797   1.401       .  A
C796        C799   1.441       .  S
C797        C798   1.401   1_455  A
C797        H809   1.083       .  S
C798        H810   1.083       .  S
C799        C800   1.207       .  T
C800        C801   1.441       .  S
C801        C802   1.400       .  A
C801        C806   1.399       .  A
C802        C803   1.400       .  A
C802        H811   1.083       .  S
C803        C804   1.408       .  A
C803        H812   1.083       .  S
C804        C805   1.409       .  A
C805        C806   1.398       .  A
C805        H813   1.083       .  S
C806        H814   1.084       .  S
C815        C816   1.408       .  A
C815        C820   1.409       .  A
C816        C817   1.397       .  A
C816        H829   1.083       .  S
C817        C818   1.399       .  A
C817        H830   1.084       .  S
C818        C819   1.402       .  A
C818        C821   1.444       .  S
C819        C820   1.403       .  A
C819        H831   1.083       .  S
C820        H832   1.083       .  S
C821        C822   1.209       .  T
C822        C823   1.444   1_545  S
C823        C824   1.403       .  A
C823        C828   1.398       .  A
C824        C825   1.405       .  A
C824        H833   1.083       .  S
C825        C826   1.409       .  A
C825        H834   1.083       .  S
C826        C827   1.408       .  A
C827        C828   1.396       .  A
C827        H835   1.083       .  S
C828        H836   1.084       .  S
C837        C838   1.408       .  A
C837        C842   1.406       .  A
C838        C839   1.407       .  A
C838        H851   1.083       .  S
C839        C840   1.404       .  A
C839        H852   1.083       .  S
C840        C841   1.397       .  A
C840        C843   1.442       .  S
C841        C842   1.391       .  A
C841        H853   1.084       .  S
C842        H854   1.083       .  S
C843        C844   1.208       .  T
C844        C845   1.443       .  S
C845        C846   1.398       .  A
C845        C850   1.403       .  A
C846        C847   1.393       .  A
C846        H855   1.084       .  S
C847        C848   1.406       .  A
C847        H856   1.083       .  S
C848        C849   1.408       .  A
C849        C850   1.406       .  A
C849        H857   1.083       .  S
C850        H858   1.083       .  S
C859        C860   1.408       .  A
C859        C864   1.408       .  A
C860        C861   1.399       .  A
C860        H873   1.083       .  S
C861        C862   1.400       .  A
C861        H874   1.083       .  S
C862        C863   1.401       .  A
C862        C865   1.445       .  S
C863        C864   1.402       .  A
C863        H875   1.083       .  S
C864        H876   1.083       .  S
C865        C866   1.209       .  T
C866        C867   1.445       .  S
C867        C868   1.401       .  A
C867        C872   1.400       .  A
C868        C869   1.402       .  A
C868        H877   1.083       .  S
C869        C870   1.408       .  A
C869        H878   1.083       .  S
C870        C871   1.409       .  A
C871        C872   1.400       .  A
C871        H879   1.083       .  S
C872        H880   1.084       .  S
C881        C882   1.408   1_556  A
C881        C886   1.408       .  A
C882        C883   1.396       .  A
C882        H895   1.083       .  S
C883        C884   1.399       .  A
C883        H896   1.084       .  S
C884        C885   1.401   1_554  A
C884        C887   1.442       .  S
C885        C886   1.402       .  A
C885        H897   1.083       .  S
C886        H898   1.083       .  S
C887        C888   1.207       .  T
C888        C889   1.442       .  S
C889        C890   1.402       .  A
C889        C894   1.399       .  A
C890        C891   1.402       .  A
C890        H899   1.083   1_554  S
C891        C892   1.407       .  A
C891        H900   1.083       .  S
C892        C893   1.408       .  A
C893        C894   1.396       .  A
C893        H901   1.083       .  S
C894        H902   1.084       .  S
C903        C904   1.408       .  A
C903        C908   1.408       .  A
C904        C905   1.399       .  A
C904        H917   1.083       .  S
C905        C906   1.400       .  A
C905        H918   1.084       .  S
C906        C907   1.400       .  A
C906        C909   1.443       .  S
C907        C908   1.400       .  A
C907        H919   1.083       .  S
C908        H920   1.083       .  S
C909        C910   1.208       .  T
C910        C911   1.443       .  S
C911        C912   1.401       .  A
C911        C916   1.399       .  A
C912        C913   1.401       .  A
C912        H921   1.083       .  S
C913        C914   1.408       .  A
C913        H922   1.083       .  S
C914        C915   1.408       .  A
C915        C916   1.398       .  A
C915        H923   1.083       .  S
C916        H924   1.084       .  S
C925        C926   1.408       .  A
C925        C930   1.408       .  A
C926        C927   1.397       .  A
C926        H939   1.083       .  S
C927        C928   1.399       .  A
C927        H940   1.084       .  S
C928        C929   1.401       .  A
C928        C931   1.442       .  S
C929        C930   1.401       .  A
C929        H941   1.083       .  S
C930        H942   1.083       .  S
C931        C932   1.207       .  T
C932        C933   1.442       .  S
C933        C934   1.399       .  A
C933        C938   1.400       .  A
C934        C935   1.399       .  A
C934        H943   1.084       .  S
C935        C936   1.408       .  A
C935        H944   1.083       .  S
C936        C937   1.407       .  A
C937        C938   1.400       .  A
C937        H945   1.083       .  S
C938        H946   1.083       .  S
C947        C948   1.408       .  A
C947        C952   1.409       .  A
C948        C949   1.400       .  A
C948        H961   1.083       .  S
C949        C950   1.401       .  A
C949        H962   1.084       .  S
C950        C951   1.402       .  A
C950        C953   1.449       .  S
C951        C952   1.404       .  A
C951        H963   1.083       .  S
C952        H964   1.083       .  S
C953        C954   1.212       .  T
C954        C955   1.449       .  S
C955        C956   1.403       .  A
C955        C960   1.399       .  A
C956        C957   1.406       .  A
C956        H965   1.083       .  S
C957        C958   1.409       .  A
C957        H966   1.083       .  S
C958        C959   1.408       .  A
C959        C960   1.398       .  A
C959        H967   1.083       .  S
C960        H968   1.084       .  S
C969        C970   1.407       .  A
C969        C974   1.407       .  A
C970        C971   1.399       .  A
C970        H983   1.083       .  S
C971        C972   1.400       .  A
C971        H984   1.083       .  S
C972        C973   1.398       .  A
C972        C975   1.437       .  S
C973        C974   1.395       .  A
C973        H985   1.084       .  S
C974        H986   1.083       .  S
C975        C976   1.204       .  T
C976        C977   1.437       .  S
C977        C978   1.400       .  A
C977        C982   1.398       .  A
C978        C979   1.400       .  A
C978        H987   1.083       .  S
C979        C980   1.408       .  A
C979        H988   1.083       .  S
C980        C981   1.407       .  A
C981        C982   1.395       .  A
C981        H989   1.083       .  S
C982        H990   1.084       .  S
C991        C992   1.407       .  A
C991        C996   1.408       .  A
C992        C993   1.396       .  A
C992       H1005   1.083       .  S
C993        C994   1.399       .  A
C993       H1006   1.084       .  S
C994        C995   1.401       .  A
C994        C997   1.442       .  S
C995        C996   1.402       .  A
C995       H1007   1.083       .  S
C996       H1008   1.083       .  S
C997        C998   1.207       .  T
C998        C999   1.442       .  S
C999       C1000   1.401       .  A
C999       C1004   1.399       .  A
C1000      C1001   1.402       .  A
C1000      H1009   1.083       .  S
C1001      C1002   1.408       .  A
C1001      H1010   1.083       .  S
C1002      C1003   1.408       .  A
C1003      C1004   1.397       .  A
C1003      H1011   1.083       .  S
C1004      H1012   1.084       .  S
C1013      C1014   1.409       .  A
C1013      C1018   1.408       .  A
C1014      C1015   1.406       .  A
C1014      H1027   1.083       .  S
C1015      C1016   1.404       .  A
C1015      H1028   1.083       .  S
C1016      C1017   1.398       .  A
C1016      C1019   1.447       .  S
C1017      C1018   1.397       .  A
C1017      H1029   1.084       .  S
C1018      H1030   1.083       .  S
C1019      C1020   1.210       .  T
C1020      C1021   1.447       .  S
C1021      C1022   1.400       .  A
C1021      C1026   1.402       .  A
C1022      C1023   1.398       .  A
C1022      H1031   1.084       .  S
C1023      C1024   1.408       .  A
C1023      H1032   1.083       .  S
C1024      C1025   1.409       .  A
C1025      C1026   1.405       .  A
C1025      H1033   1.083       .  S
C1026      H1034   1.083       .  S
C1035      C1036   1.408       .  A
C1035      C1040   1.408       .  A
C1036      C1037   1.403       .  A
C1036      H1049   1.083       .  S
C1037      C1038   1.402       .  A
C1037      H1050   1.083       .  S
C1038      C1039   1.399       .  A
C1038      C1041   1.444       .  S
C1039      C1040   1.397       .  A
C1039      H1051   1.084       .  S
C1040      H1052   1.083       .  S
C1041      C1042   1.209       .  T
C1042      C1043   1.444       .  S
C1043      C1044   1.400       .  A
C1043      C1048   1.401       .  A
C1044      C1045   1.398       .  A
C1044      H1053   1.084       .  S
C1045      C1046   1.408       .  A
C1045      H1054   1.083       .  S
C1046      C1047   1.409       .  A
C1047      C1048   1.403       .  A
C1047      H1055   1.083       .  S
C1048      H1056   1.083       .  S
C1057      C1058   1.408       .  A
C1057      C1062   1.408       .  A
C1058      C1059   1.400       .  A
C1058      H1071   1.083       .  S
C1059      C1060   1.400       .  A
C1059      H1072   1.083       .  S
C1060      C1061   1.400       .  A
C1060      C1063   1.443       .  S
C1061      C1062   1.399       .  A
C1061      H1073   1.084       .  S
C1062      H1074   1.083       .  S
C1063      C1064   1.208       .  T
C1064      C1065   1.443       .  S
C1065      C1066   1.399       .  A
C1065      C1070   1.401       .  A
C1066      C1067   1.397       .  A
C1066      H1075   1.084       .  S
C1067      C1068   1.409       .  A
C1067      H1076   1.083       .  S
C1068      C1069   1.407       .  A
C1069      C1070   1.402       .  A
C1069      H1077   1.083       .  S
C1070      H1078   1.083       .  S
C1079      C1080   1.407       .  A
C1079      C1084   1.408       .  A
C1080      C1081   1.394       .  A
C1080      H1093   1.083       .  S
C1081      C1082   1.397       .  A
C1081      H1094   1.084       .  S
C1082      C1083   1.401       .  A
C1082      C1085   1.438       .  S
C1083      C1084   1.401       .  A
C1083      H1095   1.083       .  S
C1084      H1096   1.083       .  S
C1085      C1086   1.205       .  T
C1086      C1087   1.438       .  S
C1087      C1088   1.399       .  A
C1087      C1092   1.400       .  A
C1088      C1089   1.399       .  A
C1088      H1097   1.083       .  S
C1089      C1090   1.407       .  A
C1089      H1098   1.083       .  S
C1090      C1091   1.406       .  A
C1091      C1092   1.397       .  A
C1091      H1099   1.083       .  S
C1092      H1100   1.084       .  S
C1101      C1102   1.408       .  A
C1101      C1106   1.407       .  A
C1102      C1103   1.400       .  A
C1102      H1115   1.083       .  S
C1103      C1104   1.400       .  A
C1103      H1116   1.083       .  S
C1104      C1105   1.399       .  A
C1104      C1107   1.440       .  S
C1105      C1106   1.397       .  A
C1105      H1117   1.084       .  S
C1106      H1118   1.083       .  S
C1107      C1108   1.206       .  T
C1108      C1109   1.440       .  S
C1109      C1110   1.398       .  A
C1109      C1114   1.401       .  A
C1110      C1111   1.395       .  A
C1110      H1119   1.084       .  S
C1111      C1112   1.407       .  A
C1111      H1120   1.083       .  S
C1112      C1113   1.408       .  A
C1113      C1114   1.402       .  A
C1113      H1121   1.083       .  S
C1114      H1122   1.083       .  S
C1123      C1124   1.408       .  A
C1123      C1128   1.407       .  A
C1124      C1125   1.401       .  A
C1124      H1137   1.083       .  S
C1125      C1126   1.401       .  A
C1125      H1138   1.083       .  S
C1126      C1127   1.398       .  A
C1126      C1129   1.440       .  S
C1127      C1128   1.396       .  A
C1127      H1139   1.084       .  S
C1128      H1140   1.083       .  S
C1129      C1130   1.206       .  T
C1130      C1131   1.440       .  S
C1131      C1132   1.399       .  A
C1131      C1136   1.400       .  A
C1132      C1133   1.396       .  A
C1132      H1141   1.084       .  S
C1133      C1134   1.408       .  A
C1133      H1142   1.083       .  S
C1134      C1135   1.407       .  A
C1135      C1136   1.401       .  A
C1135      H1143   1.083       .  S
C1136      H1144   1.083       .  S
C1145      C1146   1.408       .  A
C1145      C1150   1.408       .  A
C1146      C1147   1.398       .  A
C1146      H1159   1.083       .  S
C1147      C1148   1.399       .  A
C1147      H1160   1.084       .  S
C1148      C1149   1.401       .  A
C1148      C1151   1.442       .  S
C1149      C1150   1.401       .  A
C1149      H1161   1.083       .  S
C1150      H1162   1.083       .  S
C1151      C1152   1.207       .  T
C1152      C1153   1.442       .  S
C1153      C1154   1.401       .  A
C1153      C1158   1.399       .  A
C1154      C1155   1.402       .  A
C1154      H1163   1.083       .  S
C1155      C1156   1.409       .  A
C1155      H1164   1.083       .  S
C1156      C1157   1.407       .  A
C1157      C1158   1.397       .  A
C1157      H1165   1.083       .  S
C1158      H1166   1.084       .  S
C1167      C1168   1.409       .  A
C1167      C1172   1.409       .  A
C1168      C1169   1.399       .  A
C1168      H1181   1.083       .  S
C1169      C1170   1.400       .  A
C1169      H1182   1.084       .  S
C1170      C1171   1.402       .  A
C1170      C1173   1.449       .  S
C1171      C1172   1.405       .  A
C1171      H1183   1.083       .  S
C1172      H1184   1.083       .  S
C1173      C1174   1.211       .  T
C1174      C1175   1.448       .  S
C1175      C1176   1.403   1_554  A
C1175      C1180   1.399       .  A
C1176      C1177   1.405       .  A
C1176      H1185   1.083       .  S
C1177      C1178   1.409       .  A
C1177      H1186   1.083       .  S
C1178      C1179   1.409   1_556  A
C1179      C1180   1.399       .  A
C1179      H1187   1.083       .  S
C1180      H1188   1.084       .  S
C1189      C1190   1.407       .  A
C1189      C1194   1.408       .  A
C1190      C1191   1.398       .  A
C1190      H1203   1.083       .  S
C1191      C1192   1.399       .  A
C1191      H1204   1.084       .  S
C1192      C1193   1.400       .  A
C1192      C1195   1.441       .  S
C1193      C1194   1.401       .  A
C1193      H1205   1.083       .  S
C1194      H1206   1.083   1_556  S
C1195      C1196   1.207       .  T
C1196      C1197   1.441       .  S
C1197      C1198   1.400       .  A
C1197      C1202   1.400       .  A
C1198      C1199   1.398       .  A
C1198      H1207   1.084       .  S
C1199      C1200   1.408       .  A
C1199      H1208   1.083       .  S
C1200      C1201   1.408       .  A
C1201      C1202   1.400       .  A
C1201      H1209   1.083       .  S
C1202      H1210   1.083       .  S
C1211      C1212   1.408       .  A
C1211      C1216   1.408       .  A
C1212      C1213   1.400       .  A
C1212      H1225   1.083       .  S
C1213      C1214   1.400       .  A
C1213      H1226   1.083       .  S
C1214      C1215   1.399       .  A
C1214      C1217   1.441       .  S
C1215      C1216   1.398       .  A
C1215      H1227   1.084       .  S
C1216      H1228   1.083       .  S
C1217      C1218   1.207       .  T
C1218      C1219   1.441       .  S
C1219      C1220   1.401       .  A
C1219      C1224   1.399       .  A
C1220      C1221   1.401       .  A
C1220      H1229   1.083       .  S
C1221      C1222   1.407       .  A
C1221      H1230   1.083       .  S
C1222      C1223   1.407       .  A
C1223      C1224   1.397       .  A
C1223      H1231   1.083       .  S
C1224      H1232   1.084       .  S
C1233      C1234   1.408       .  A
C1233      C1238   1.407       .  A
C1234      C1235   1.400       .  A
C1234      H1247   1.083       .  S
C1235      C1236   1.400       .  A
C1235      H1248   1.083       .  S
C1236      C1237   1.398       .  A
C1236      C1239   1.439       .  S
C1237      C1238   1.396       .  A
C1237      H1249   1.084       .  S
C1238      H1250   1.083       .  S
C1239      C1240   1.206       .  T
C1240      C1241   1.439       .  S
C1241      C1242   1.400       .  A
C1241      C1246   1.399       .  A
C1242      C1243   1.398       .  A
C1242      H1251   1.084       .  S
C1243      C1244   1.407       .  A
C1243      H1252   1.083       .  S
C1244      C1245   1.408       .  A
C1245      C1246   1.399       .  A
C1245      H1253   1.083       .  S
C1246      H1254   1.084       .  S
C1255      C1256   1.408       .  A
C1255      C1260   1.408       .  A
C1256      C1257   1.398       .  A
C1256      H1269   1.083       .  S
C1257      C1258   1.399       .  A
C1257      H1270   1.084       .  S
C1258      C1259   1.402       .  A
C1258      C1261   1.444       .  S
C1259      C1260   1.403       .  A
C1259      H1271   1.083       .  S
C1260      H1272   1.083       .  S
C1261      C1262   1.209       .  T
C1262      C1263   1.444       .  S
C1263      C1264   1.399       .  A
C1263      C1268   1.402       .  A
C1264      C1265   1.399       .  A
C1264      H1273   1.084       .  S
C1265      C1266   1.408       .  A
C1265      H1274   1.083       .  S
C1266      C1267   1.408       .  A
C1267      C1268   1.402       .  A
C1267      H1275   1.083       .  S
C1268      H1276   1.083       .  S
C1277      C1278   1.409       .  A
C1277      C1282   1.408       .  A
C1278      C1279   1.397       .  A
C1278      H1291   1.083       .  S
C1279      C1280   1.399       .  A
C1279      H1292   1.084       .  S
C1280      C1281   1.401       .  A
C1280      C1283   1.443       .  S
C1281      C1282   1.402       .  A
C1281      H1293   1.083       .  S
C1282      H1294   1.083       .  S
C1283      C1284   1.208       .  T
C1284      C1285   1.443       .  S
C1285      C1286   1.401       .  A
C1285      C1290   1.399       .  A
C1286      C1287   1.402       .  A
C1286      H1295   1.083       .  S
C1287      C1288   1.408       .  A
C1287      H1296   1.083       .  S
C1288      C1289   1.408       .  A
C1289      C1290   1.397       .  A
C1289      H1297   1.083       .  S
C1290      H1298   1.084       .  S
C1299      C1300   1.409       .  A
C1299      C1304   1.409       .  A
C1300      C1301   1.405       .  A
C1300      H1313   1.083       .  S
C1301      C1302   1.403       .  A
C1301      H1314   1.083       .  S
C1302      C1303   1.399       .  A
C1302      C1305   1.446       .  S
C1303      C1304   1.397       .  A
C1303      H1315   1.084       .  S
C1304      H1316   1.083       .  S
C1305      C1306   1.210       .  T
C1306      C1307   1.446   1_545  S
C1307      C1308   1.399       .  A
C1307      C1312   1.403       .  A
C1308      C1309   1.397       .  A
C1308      H1317   1.084       .  S
C1309      C1310   1.408       .  A
C1309      H1318   1.083       .  S
C1310      C1311   1.408       .  A
C1311      C1312   1.405       .  A
C1311      H1319   1.083       .  S
C1312      H1320   1.083       .  S
C1321      C1322   1.408       .  A
C1321      C1326   1.408       .  A
C1322      C1323   1.399       .  A
C1322      H1335   1.083       .  S
C1323      C1324   1.400       .  A
C1323      H1336   1.084       .  S
C1324      C1325   1.401       .  A
C1324      C1327   1.445       .  S
C1325      C1326   1.402       .  A
C1325      H1337   1.083       .  S
C1326      H1338   1.083       .  S
C1327      C1328   1.209       .  T
C1328      C1329   1.445       .  S
C1329      C1330   1.401       .  A
C1329      C1334   1.400       .  A
C1330      C1331   1.402       .  A
C1330      H1339   1.083       .  S
C1331      C1332   1.408       .  A
C1331      H1340   1.083       .  S
C1332      C1333   1.408       .  A
C1333      C1334   1.399       .  A
C1333      H1341   1.083       .  S
C1334      H1342   1.084       .  S
C1343      C1344   1.407       .  A
C1343      C1348   1.409       .  A
C1344      C1345   1.398       .  A
C1344      H1357   1.083       .  S
C1345      C1346   1.400       .  A
C1345      H1358   1.084       .  S
C1346      C1347   1.400       .  A
C1346      C1349   1.442       .  S
C1347      C1348   1.401       .  A
C1347      H1359   1.083       .  S
C1348      H1360   1.083       .  S
C1349      C1350   1.207       .  T
C1350      C1351   1.442       .  S
C1351      C1352   1.398       .  A
C1351      C1356   1.404       .  A
C1352      C1353   1.393       .  A
C1352      H1361   1.084       .  S
C1353      C1354   1.406       .  A
C1353      H1362   1.084       .  S
C1354      C1355   1.406       .  A
C1355      C1356   1.406       .  A
C1355      H1363   1.083       .  S
C1356      H1364   1.083       .  S
C1365      C1366   1.407       .  A
C1365      C1370   1.409       .  A
C1366      C1367   1.396       .  A
C1366      H1379   1.083       .  S
C1367      C1368   1.399       .  A
C1367      H1380   1.084       .  S
C1368      C1369   1.401       .  A
C1368      C1371   1.441       .  S
C1369      C1370   1.402       .  A
C1369      H1381   1.083       .  S
C1370      H1382   1.083       .  S
C1371      C1372   1.207       .  T
C1372      C1373   1.441   1_554  S
C1373      C1374   1.399       .  A
C1373      C1378   1.401       .  A
C1374      C1375   1.397       .  A
C1374      H1383   1.084       .  S
C1375      C1376   1.407       .  A
C1375      H1384   1.083       .  S
C1376      C1377   1.408       .  A
C1377      C1378   1.402       .  A
C1377      H1385   1.083       .  S
C1378      H1386   1.083       .  S
C1387      C1388   1.407       .  A
C1387      C1392   1.407       .  A
C1388      C1389   1.399       .  A
C1388      H1401   1.083       .  S
C1389      C1390   1.400       .  A
C1389      H1402   1.083       .  S
C1390      C1391   1.399       .  A
C1390      C1393   1.438       .  S
C1391      C1392   1.396       .  A
C1391      H1403   1.084       .  S
C1392      H1404   1.083       .  S
C1393      C1394   1.205       .  T
C1394      C1395   1.438       .  S
C1395      C1396   1.400       .  A
C1395      C1400   1.398       .  A
C1396      C1397   1.401       .  A
C1396      H1405   1.083       .  S
C1397      C1398   1.408       .  A
C1397      H1406   1.083       .  S
C1398      C1399   1.407       .  A
C1399      C1400   1.395       .  A
C1399      H1407   1.083       .  S
C1400      H1408   1.084       .  S
C1409      C1410   1.407       .  A
C1409      C1414   1.408       .  A
C1410      C1411   1.393       .  A
C1410      H1423   1.083       .  S
C1411      C1412   1.396       .  A
C1411      H1424   1.084       .  S
C1412      C1413   1.401       .  A
C1412      C1415   1.437       .  S
C1413      C1414   1.401       .  A
C1413      H1425   1.083       .  S
C1414      H1426   1.083       .  S
C1415      C1416   1.204       .  T
C1416      C1417   1.437       .  S
C1417      C1418   1.397       .  A
C1417      C1422   1.400       .  A
C1418      C1419   1.396       .  A
C1418      H1427   1.084       .  S
C1419      C1420   1.408       .  A
C1419      H1428   1.083       .  S
C1420      C1421   1.407       .  A
C1421      C1422   1.399       .  A
C1421      H1429   1.083       .  S
C1422      H1430   1.083       .  S
C1431      C1432   1.407       .  A
C1431      C1436   1.408       .  A
C1432      C1433   1.400       .  A
C1432      H1445   1.083       .  S
C1433      C1434   1.400       .  A
C1433      H1446   1.083       .  S
C1434      C1435   1.399       .  A
C1434      C1437   1.440   1_554  S
C1435      C1436   1.397       .  A
C1435      H1447   1.084       .  S
C1436      H1448   1.083       .  S
C1437      C1438   1.206       .  T
C1438      C1439   1.440       .  S
C1439      C1440   1.398       .  A
C1439      C1444   1.401       .  A
C1440      C1441   1.394       .  A
C1440      H1449   1.084       .  S
C1441      C1442   1.407       .  A
C1441      H1450   1.083       .  S
C1442      C1443   1.408       .  A
C1443      C1444   1.402       .  A
C1443      H1451   1.083       .  S
C1444      H1452   1.083       .  S
C1453      C1454   1.407       .  A
C1453      C1458   1.408       .  A
C1454      C1455   1.399       .  A
C1454      H1467   1.083       .  S
C1455      C1456   1.399       .  A
C1455      H1468   1.083       .  S
C1456      C1457   1.399       .  A
C1456      C1459   1.439       .  S
C1457      C1458   1.398       .  A
C1457      H1469   1.084       .  S
C1458      H1470   1.083       .  S
C1459      C1460   1.206       .  T
C1460      C1461   1.439       .  S
C1461      C1462   1.398       .  A
C1461      C1466   1.401       .  A
C1462      C1463   1.396       .  A
C1462      H1471   1.084       .  S
C1463      C1464   1.407       .  A
C1463      H1472   1.083       .  S
C1464      C1465   1.406       .  A
C1465      C1466   1.401       .  A
C1465      H1473   1.083       .  S
C1466      H1474   1.083       .  S
C1475      C1476   1.409       .  A
C1475      C1480   1.408       .  A
C1476      C1477   1.404       .  A
C1476      H1489   1.083       .  S
C1477      C1478   1.402       .  A
C1477      H1490   1.083       .  S
C1478      C1479   1.399       .  A
C1478      C1481   1.446   1_565  S
C1479      C1480   1.398       .  A
C1479      H1491   1.084   1_565  S
C1480      H1492   1.083       .  S
C1481      C1482   1.210       .  T
C1482      C1483   1.446       .  S
C1483      C1484   1.400       .  A
C1483      C1488   1.402       .  A
C1484      C1485   1.399       .  A
C1484      H1493   1.084       .  S
C1485      C1486   1.408       .  A
C1485      H1494   1.083       .  S
C1486      C1487   1.408       .  A
C1487      C1488   1.403       .  A
C1487      H1495   1.083       .  S
C1488      H1496   1.083       .  S
C1497      C1498   1.408       .  A
C1497      C1502   1.409       .  A
C1498      C1499   1.399       .  A
C1498      H1511   1.083       .  S
C1499      C1500   1.400       .  A
C1499      H1512   1.084       .  S
C1500      C1501   1.401       .  A
C1500      C1503   1.445       .  S
C1501      C1502   1.402       .  A
C1501      H1513   1.083       .  S
C1502      H1514   1.083       .  S
C1503      C1504   1.209       .  T
C1504      C1505   1.445       .  S
C1505      C1506   1.400       .  A
C1505      C1510   1.401       .  A
C1506      C1507   1.401       .  A
C1506      H1515   1.083       .  S
C1507      C1508   1.409       .  A
C1507      H1516   1.083       .  S
C1508      C1509   1.407       .  A
C1509      C1510   1.400       .  A
C1509      H1517   1.083       .  S
C1510      H1518   1.084       .  S
C1519      C1520   1.406       .  A
C1519      C1524   1.404       .  A
C1520      C1521   1.406       .  A
C1520      H1533   1.083       .  S
C1521      C1522   1.404       .  A
C1521      H1534   1.083       .  S
C1522      C1523   1.399       .  A
C1522      C1525   1.443       .  S
C1523      C1524   1.394       .  A
C1523      H1535   1.084       .  S
C1524      H1536   1.084       .  S
C1525      C1526   1.208       .  T
C1526      C1527   1.443       .  S
C1527      C1528   1.398       .  A
C1527      C1532   1.404       .  A
C1528      C1529   1.393       .  A
C1528      H1537   1.084       .  S
C1529      C1530   1.406       .  A
C1529      H1538   1.084       .  S
C1530      C1531   1.408       .  A
C1531      C1532   1.406       .  A
C1531      H1539   1.083       .  S
C1532      H1540   1.083       .  S
C1541      C1542   1.409       .  A
C1541      C1546   1.409       .  A
C1542      C1543   1.406       .  A
C1542      H1555   1.083       .  S
C1543      C1544   1.403       .  A
C1543      H1556   1.083       .  S
C1544      C1545   1.400       .  A
C1544      C1547   1.452       .  S
C1545      C1546   1.401       .  A
C1545      H1557   1.084       .  S
C1546      H1558   1.083       .  S
C1547      C1548   1.213       .  T
C1548      C1549   1.452       .  S
C1549      C1550   1.400       .  A
C1549      C1554   1.403       .  A
C1550      C1551   1.401       .  A
C1550      H1559   1.084       .  S
C1551      C1552   1.409       .  A
C1551      H1560   1.083       .  S
C1552      C1553   1.409       .  A
C1553      C1554   1.406       .  A
C1553      H1561   1.083       .  S
C1554      H1562   1.083       .  S
C1563      C1564   1.409       .  A
C1563      C1568   1.408       .  A
C1564      C1565   1.401       .  A
C1564      H1577   1.083       .  S
C1565      C1566   1.400       .  A
C1565      H1578   1.083       .  S
C1566      C1567   1.402       .  A
C1566      C1569   1.447       .  S
C1567      C1568   1.402       .  A
C1567      H1579   1.083       .  S
C1568      H1580   1.083       .  S
C1569      C1570   1.210       .  T
C1570      C1571   1.447       .  S
C1571      C1572   1.399       .  A
C1571      C1576   1.402       .  A
C1572      C1573   1.398       .  A
C1572      H1581   1.084       .  S
C1573      C1574   1.409       .  A
C1573      H1582   1.083       .  S
C1574      C1575   1.409       .  A
C1575      C1576   1.404       .  A
C1575      H1583   1.083       .  S
C1576      H1584   1.083       .  S
C1585      C1586   1.407       .  A
C1585      C1590   1.408       .  A
C1586      C1587   1.400       .  A
C1586      H1599   1.083       .  S
C1587      C1588   1.400       .  A
C1587      H1600   1.083       .  S
C1588      C1589   1.399       .  A
C1588      C1591   1.439       .  S
C1589      C1590   1.397       .  A
C1589      H1601   1.084       .  S
C1590      H1602   1.083       .  S
C1591      C1592   1.205       .  T
C1592      C1593   1.439       .  S
C1593      C1594   1.399       .  A
C1593      C1598   1.399       .  A
C1594      C1595   1.398       .  A
C1594      H1603   1.084       .  S
C1595      C1596   1.407       .  A
C1595      H1604   1.083       .  S
C1596      C1597   1.408       .  A
C1597      C1598   1.399       .  A
C1597      H1605   1.083       .  S
C1598      H1606   1.083       .  S
C1607      C1608   1.407   1_655  A
C1607      C1612   1.408       .  A
C1608      C1609   1.401       .  A
C1608      H1621   1.083       .  S
C1609      C1610   1.400       .  A
C1609      H1622   1.083       .  S
C1610      C1611   1.397   1_455  A
C1610      C1613   1.437       .  S
C1611      C1612   1.394       .  A
C1611      H1623   1.084       .  S
C1612      H1624   1.083       .  S
C1613      C1614   1.205       .  T
C1614      C1615   1.437       .  S
C1615      C1616   1.399       .  A
C1615      C1620   1.399       .  A
C1616      C1617   1.397       .  A
C1616      H1625   1.084   1_455  S
C1617      C1618   1.407       .  A
C1617      H1626   1.083   1_455  S
C1618      C1619   1.407       .  A
C1619      C1620   1.398       .  A
C1619      H1627   1.083       .  S
C1620      H1628   1.083       .  S
C1629      C1630   1.407       .  A
C1629      C1634   1.408       .  A
C1630      C1631   1.395   1_455  A
C1630      H1643   1.083       .  S
C1631      C1632   1.398       .  A
C1631      H1644   1.084       .  S
C1632      C1633   1.400       .  A
C1632      C1635   1.439       .  S
C1633      C1634   1.401   1_655  A
C1633      H1645   1.083       .  S
C1634      H1646   1.083       .  S
C1635      C1636   1.206       .  T
C1636      C1637   1.439   1_556  S
C1637      C1638   1.400       .  A
C1637      C1642   1.399       .  A
C1638      C1639   1.400       .  A
C1638      H1647   1.083       .  S
C1639      C1640   1.408       .  A
C1639      H1648   1.083       .  S
C1640      C1641   1.407       .  A
C1641      C1642   1.396       .  A
C1641      H1649   1.083       .  S
C1642      H1650   1.084       .  S
C1651      C1652   1.408       .  A
C1651      C1656   1.407       .  A
C1652      C1653   1.401       .  A
C1652      H1665   1.083       .  S
C1653      C1654   1.400       .  A
C1653      H1666   1.083   1_556  S
C1654      C1655   1.399       .  A
C1654      C1657   1.441   1_556  S
C1655      C1656   1.396       .  A
C1655      H1667   1.084   1_455  S
C1656      H1668   1.083   1_455  S
C1657      C1658   1.207       .  T
C1658      C1659   1.441       .  S
C1659      C1660   1.398   1_455  A
C1659      C1664   1.401       .  A
C1660      C1661   1.396       .  A
C1660      H1669   1.084       .  S
C1661      C1662   1.407       .  A
C1661      H1670   1.083       .  S
C1662      C1663   1.408   1_655  A
C1663      C1664   1.402       .  A
C1663      H1671   1.083       .  S
C1664      H1672   1.083       .  S
C1673      C1674   1.407       .  A
C1673      C1678   1.408       .  A
C1674      C1675   1.394       .  A
C1674      H1687   1.083       .  S
C1675      C1676   1.397   1_455  A
C1675      H1688   1.084       .  S
C1676      C1677   1.401       .  A
C1676      C1679   1.439       .  S
C1677      C1678   1.402   1_655  A
C1677      H1689   1.083       .  S
C1678      H1690   1.083       .  S
C1679      C1680   1.206       .  T
C1680      C1681   1.439       .  S
C1681      C1682   1.400       .  A
C1681      C1686   1.399       .  A
C1682      C1683   1.400       .  A
C1682      H1691   1.083   1_655  S
C1683      C1684   1.407       .  A
C1683      H1692   1.083       .  S
C1684      C1685   1.407       .  A
C1685      C1686   1.396       .  A
C1685      H1693   1.083       .  S
C1686      H1694   1.084       .  S
C1695      C1696   1.408       .  A
C1695      C1700   1.408       .  A
C1696      C1697   1.403       .  A
C1696      H1709   1.083       .  S
C1697      C1698   1.401       .  A
C1697      H1710   1.083       .  S
C1698      C1699   1.399       .  A
C1698      C1701   1.443       .  S
C1699      C1700   1.397       .  A
C1699      H1711   1.084       .  S
C1700      H1712   1.083       .  S
C1701      C1702   1.208       .  T
C1702      C1703   1.443       .  S
C1703      C1704   1.399       .  A
C1703      C1708   1.401       .  A
C1704      C1705   1.397       .  A
C1704      H1713   1.084       .  S
C1705      C1706   1.408       .  A
C1705      H1714   1.083       .  S
C1706      C1707   1.408       .  A
C1707      C1708   1.402       .  A
C1707      H1715   1.083       .  S
C1708      H1716   1.083       .  S
C1717      C1718   1.409       .  A
C1717      C1722   1.407       .  A
C1718      C1719   1.396       .  A
C1718      H1731   1.083       .  S
C1719      C1720   1.398       .  A
C1719      H1732   1.084       .  S
C1720      C1721   1.402       .  A
C1720      C1723   1.442       .  S
C1721      C1722   1.402       .  A
C1721      H1733   1.083       .  S
C1722      H1734   1.083       .  S
C1723      C1724   1.208       .  T
C1724      C1725   1.442       .  S
C1725      C1726   1.399       .  A
C1725      C1730   1.401       .  A
C1726      C1727   1.399       .  A
C1726      H1735   1.084       .  S
C1727      C1728   1.408       .  A
C1727      H1736   1.083       .  S
C1728      C1729   1.409       .  A
C1729      C1730   1.401       .  A
C1729      H1737   1.083       .  S
C1730      H1738   1.083       .  S
C1739      C1740   1.408       .  A
C1739      C1744   1.408       .  A
C1740      C1741   1.401       .  A
C1740      H1753   1.083       .  S
C1741      C1742   1.400       .  A
C1741      H1754   1.083       .  S
C1742      C1743   1.399       .  A
C1742      C1745   1.442       .  S
C1743      C1744   1.398       .  A
C1743      H1755   1.084       .  S
C1744      H1756   1.083       .  S
C1745      C1746   1.207       .  T
C1746      C1747   1.442       .  S
C1747      C1748   1.399       .  A
C1747      C1752   1.400       .  A
C1748      C1749   1.400       .  A
C1748      H1757   1.083       .  S
C1749      C1750   1.409       .  A
C1749      H1758   1.083       .  S
C1750      C1751   1.407       .  A
C1751      C1752   1.399       .  A
C1751      H1759   1.083       .  S
C1752      H1760   1.084       .  S
C1761      C1762   1.408       .  A
C1761      C1766   1.408       .  A
C1762      C1763   1.401       .  A
C1762      H1775   1.083       .  S
C1763      C1764   1.400       .  A
C1763      H1776   1.083       .  S
C1764      C1765   1.400       .  A
C1764      C1767   1.443       .  S
C1765      C1766   1.398       .  A
C1765      H1777   1.084       .  S
C1766      H1778   1.083       .  S
C1767      C1768   1.208       .  T
C1768      C1769   1.443       .  S
C1769      C1770   1.401       .  A
C1769      C1774   1.399       .  A
C1770      C1771   1.400       .  A
C1770      H1779   1.084       .  S
C1771      C1772   1.408       .  A
C1771      H1780   1.083       .  S
C1772      C1773   1.409       .  A
C1773      C1774   1.400       .  A
C1773      H1781   1.083       .  S
C1774      H1782   1.083       .  S
C1783      C1784   1.408       .  A
C1783      C1788   1.408       .  A
C1784      C1785   1.399       .  A
C1784      H1797   1.083       .  S
C1785      C1786   1.399       .  A
C1785      H1798   1.084       .  S
C1786      C1787   1.402       .  A
C1786      C1789   1.445       .  S
C1787      C1788   1.402       .  A
C1787      H1799   1.083       .  S
C1788      H1800   1.083       .  S
C1789      C1790   1.209       .  T
C1790      C1791   1.445       .  S
C1791      C1792   1.401       .  A
C1791      C1796   1.401       .  A
C1792      C1793   1.401       .  A
C1792      H1801   1.083       .  S
C1793      C1794   1.408       .  A
C1793      H1802   1.083       .  S
C1794      C1795   1.408       .  A
C1795      C1796   1.401       .  A
C1795      H1803   1.083       .  S
C1796      H1804   1.083       .  S
C1805      C1806   1.408       .  A
C1805      C1810   1.408       .  A
C1806      C1807   1.398       .  A
C1806      H1819   1.083       .  S
C1807      C1808   1.399       .  A
C1807      H1820   1.084       .  S
C1808      C1809   1.401       .  A
C1808      C1811   1.443       .  S
C1809      C1810   1.401       .  A
C1809      H1821   1.083       .  S
C1810      H1822   1.083       .  S
C1811      C1812   1.208       .  T
C1812      C1813   1.443       .  S
C1813      C1814   1.400       .  A
C1813      C1818   1.400       .  A
C1814      C1815   1.399       .  A
C1814      H1823   1.083       .  S
C1815      C1816   1.408       .  A
C1815      H1824   1.083       .  S
C1816      C1817   1.408       .  A
C1817      C1818   1.400       .  A
C1817      H1825   1.083       .  S
C1818      H1826   1.083       .  S
C1827      C1828   1.407       .  A
C1827      C1832   1.408       .  A
C1828      C1829   1.399       .  A
C1828      H1841   1.083       .  S
C1829      C1830   1.401       .  A
C1829      H1842   1.084       .  S
C1830      C1831   1.398       .  A
C1830      C1833   1.439       .  S
C1831      C1832   1.397       .  A
C1831      H1843   1.084       .  S
C1832      H1844   1.083       .  S
C1833      C1834   1.206       .  T
C1834      C1835   1.439       .  S
C1835      C1836   1.400       .  A
C1835      C1840   1.399       .  A
C1836      C1837   1.398       .  A
C1836      H1845   1.084       .  S
C1837      C1838   1.408       .  A
C1837      H1846   1.083       .  S
C1838      C1839   1.407       .  A
C1839      C1840   1.399       .  A
C1839      H1847   1.083       .  S
C1840      H1848   1.083       .  S
C1849      C1850   1.407       .  A
C1849      C1854   1.409       .  A
C1850      C1851   1.403       .  A
C1850      H1863   1.083       .  S
C1851      C1852   1.402       .  A
C1851      H1864   1.083       .  S
C1852      C1853   1.399       .  A
C1852      C1855   1.445       .  S
C1853      C1854   1.399       .  A
C1853      H1865   1.084       .  S
C1854      H1866   1.083       .  S
C1855      C1856   1.209       .  T
C1856      C1857   1.446       .  S
C1857      C1858   1.401       .  A
C1857      C1862   1.400       .  A
C1858      C1859   1.402       .  A
C1858      H1867   1.083       .  S
C1859      C1860   1.408       .  A
C1859      H1868   1.083       .  S
C1860      C1861   1.409       .  A
C1861      C1862   1.400       .  A
C1861      H1869   1.083       .  S
C1862      H1870   1.083       .  S
C1871      C1872   1.409       .  A
C1871      C1876   1.408       .  A
C1872      C1873   1.404       .  A
C1872      H1885   1.083       .  S
C1873      C1874   1.402       .  A
C1873      H1886   1.083       .  S
C1874      C1875   1.400       .  A
C1874      C1877   1.447       .  S
C1875      C1876   1.398       .  A
C1875      H1887   1.084       .  S
C1876      H1888   1.083       .  S
C1877      C1878   1.211       .  T
C1878      C1879   1.447       .  S
C1879      C1880   1.399       .  A
C1879      C1884   1.403       .  A
C1880      C1881   1.397       .  A
C1880      H1889   1.084       .  S
C1881      C1882   1.409       .  A
C1881      H1890   1.083       .  S
C1882      C1883   1.409       .  A
C1883      C1884   1.406       .  A
C1883      H1891   1.083       .  S
C1884      H1892   1.083       .  S
C1893      C1894   1.407       .  A
C1893      C1898   1.408       .  A
C1894      C1895   1.396       .  A
C1894      H1907   1.083       .  S
C1895      C1896   1.398       .  A
C1895      H1908   1.084       .  S
C1896      C1897   1.401       .  A
C1896      C1899   1.440       .  S
C1897      C1898   1.401       .  A
C1897      H1909   1.083       .  S
C1898      H1910   1.083       .  S
C1899      C1900   1.206       .  T
C1900      C1901   1.440       .  S
C1901      C1902   1.398       .  A
C1901      C1906   1.401       .  A
C1902      C1903   1.397       .  A
C1902      H1911   1.084       .  S
C1903      C1904   1.409       .  A
C1903      H1912   1.083       .  S
C1904      C1905   1.407       .  A
C1905      C1906   1.401       .  A
C1905      H1913   1.083       .  S
C1906      H1914   1.083       .  S
C1915      C1916   1.407       .  A
C1915      C1920   1.408       .  A
C1916      C1917   1.398       .  A
C1916      H1929   1.083       .  S
C1917      C1918   1.400       .  A
C1917      H1930   1.084       .  S
C1918      C1919   1.400       .  A
C1918      C1921   1.441       .  S
C1919      C1920   1.400       .  A
C1919      H1931   1.083       .  S
C1920      H1932   1.083   1_556  S
C1921      C1922   1.207       .  T
C1922      C1923   1.441       .  S
C1923      C1924   1.399       .  A
C1923      C1928   1.400       .  A
C1924      C1925   1.397       .  A
C1924      H1933   1.084       .  S
C1925      C1926   1.407       .  A
C1925      H1934   1.083       .  S
C1926      C1927   1.408       .  A
C1927      C1928   1.400       .  A
C1927      H1935   1.083       .  S
C1928      H1936   1.083       .  S
C1937      C1938   1.408       .  A
C1937      C1942   1.409       .  A
C1938      C1939   1.401       .  A
C1938      H1951   1.083       .  S
C1939      C1940   1.401       .  A
C1939      H1952   1.083       .  S
C1940      C1941   1.400       .  A
C1940      C1943   1.445       .  S
C1941      C1942   1.401       .  A
C1941      H1953   1.083       .  S
C1942      H1954   1.083       .  S
C1943      C1944   1.209       .  T
C1944      C1945   1.445       .  S
C1945      C1946   1.397       .  A
C1945      C1950   1.403       .  A
C1946      C1947   1.396       .  A
C1946      H1955   1.084       .  S
C1947      C1948   1.409       .  A
C1947      H1956   1.083       .  S
C1948      C1949   1.408       .  A
C1949      C1950   1.405       .  A
C1949      H1957   1.083       .  S
C1950      H1958   1.083       .  S
C1959      C1960   1.407       .  A
C1959      C1964   1.408       .  A
C1960      C1961   1.395       .  A
C1960      H1973   1.083       .  S
C1961      C1962   1.398       .  A
C1961      H1974   1.084       .  S
C1962      C1963   1.400       .  A
C1962      C1965   1.439       .  S
C1963      C1964   1.401       .  A
C1963      H1975   1.083       .  S
C1964      H1976   1.083       .  S
C1965      C1966   1.206       .  T
C1966      C1967   1.439       .  S
C1967      C1968   1.399       .  A
C1967      C1972   1.400       .  A
C1968      C1969   1.396       .  A
C1968      H1977   1.084       .  S
C1969      C1970   1.408       .  A
C1969      H1978   1.083       .  S
C1970      C1971   1.407       .  A
C1971      C1972   1.400       .  A
C1971      H1979   1.083       .  S
C1972      H1980   1.083       .  S
C1981      C1982   1.408       .  A
C1981      C1986   1.407       .  A
C1982      C1983   1.401       .  A
C1982      H1995   1.083       .  S
C1983      C1984   1.400       .  A
C1983      H1996   1.083       .  S
C1984      C1985   1.398       .  A
C1984      C1987   1.439       .  S
C1985      C1986   1.396       .  A
C1985      H1997   1.084       .  S
C1986      H1998   1.083       .  S
C1987      C1988   1.206       .  T
C1988      C1989   1.440       .  S
C1989      C1990   1.400       .  A
C1989      C1994   1.399       .  A
C1990      C1991   1.400       .  A
C1990      H1999   1.083       .  S
C1991      C1992   1.408       .  A
C1991      H2000   1.083       .  S
C1992      C1993   1.407       .  A
C1993      C1994   1.397       .  A
C1993      H2001   1.083       .  S
C1994      H2002   1.084       .  S
C2003      C2004   1.409       .  A
C2003      C2008   1.408       .  A
C2004      C2005   1.403       .  A
C2004      H2017   1.083       .  S
C2005      C2006   1.402       .  A
C2005      H2018   1.083       .  S
C2006      C2007   1.401       .  A
C2006      C2009   1.448       .  S
C2007      C2008   1.401       .  A
C2007      H2019   1.084       .  S
C2008      H2020   1.083       .  S
C2009      C2010   1.211       .  T
C2010      C2011   1.448       .  S
C2011      C2012   1.399       .  A
C2011      C2016   1.403       .  A
C2012      C2013   1.399       .  A
C2012      H2021   1.084       .  S
C2013      C2014   1.409       .  A
C2013      H2022   1.083       .  S
C2014      C2015   1.408       .  A
C2015      C2016   1.404       .  A
C2015      H2023   1.083       .  S
C2016      H2024   1.083       .  S
C2025      C2026   1.408       .  A
C2025      C2030   1.407       .  A
C2026      C2027   1.397       .  A
C2026      H2039   1.083       .  S
C2027      C2028   1.399       .  A
C2027      H2040   1.084       .  S
C2028      C2029   1.400       .  A
C2028      C2031   1.439       .  S
C2029      C2030   1.399       .  A
C2029      H2041   1.083       .  S
C2030      H2042   1.083       .  S
C2031      C2032   1.206       .  T
C2032      C2033   1.439       .  S
C2033      C2034   1.401       .  A
C2033      C2038   1.398       .  A
C2034      C2035   1.401       .  A
C2034      H2043   1.083       .  S
C2035      C2036   1.408       .  A
C2035      H2044   1.083       .  S
C2036      C2037   1.407       .  A
C2037      C2038   1.395       .  A
C2037      H2045   1.083       .  S
C2038      H2046   1.084       .  S
C2047      C2048   1.409       .  A
C2047      C2052   1.407       .  A
C2048      C2049   1.400       .  A
C2048      H2061   1.083       .  S
C2049      C2050   1.399       .  A
C2049      H2062   1.083       .  S
C2050      C2051   1.400       .  A
C2050      C2053   1.440       .  S
C2051      C2052   1.398       .  A
C2051      H2063   1.084       .  S
C2052      H2064   1.083       .  S
C2053      C2054   1.206       .  T
C2054      C2055   1.440       .  S
C2055      C2056   1.398       .  A
C2055      C2060   1.401       .  A
C2056      C2057   1.396       .  A
C2056      H2065   1.084       .  S
C2057      C2058   1.408       .  A
C2057      H2066   1.083       .  S
C2058      C2059   1.408       .  A
C2059      C2060   1.402       .  A
C2059      H2067   1.083       .  S
C2060      H2068   1.083       .  S
C2069      C2070   1.410       .  A
C2069      C2074   1.408       .  A
C2070      C2071   1.400       .  A
C2070      H2083   1.083       .  S
C2071      C2072   1.400       .  A
C2071      H2084   1.084       .  S
C2072      C2073   1.403       .  A
C2072      C2075   1.450       .  S
C2073      C2074   1.405       .  A
C2073      H2085   1.083       .  S
C2074      H2086   1.083       .  S
C2075      C2076   1.212       .  T
C2076      C2077   1.450       .  S
C2077      C2078   1.403   1_554  A
C2077      C2082   1.400       .  A
C2078      C2079   1.405       .  A
C2078      H2087   1.083       .  S
C2079      C2080   1.409       .  A
C2079      H2088   1.083       .  S
C2080      C2081   1.409   1_556  A
C2081      C2082   1.400       .  A
C2081      H2089   1.083       .  S
C2082      H2090   1.084       .  S
C2091      C2092   1.408       .  A
C2091      C2096   1.408       .  A
C2092      C2093   1.401       .  A
C2092      H2105   1.083       .  S
C2093      C2094   1.401       .  A
C2093      H2106   1.083       .  S
C2094      C2095   1.399       .  A
C2094      C2097   1.443       .  S
C2095      C2096   1.399       .  A
C2095      H2107   1.084       .  S
C2096      H2108   1.083       .  S
C2097      C2098   1.208       .  T
C2098      C2099   1.444       .  S
C2099      C2100   1.400       .  A
C2099      C2104   1.400       .  A
C2100      C2101   1.400       .  A
C2100      H2109   1.083       .  S
C2101      C2102   1.409       .  A
C2101      H2110   1.083       .  S
C2102      C2103   1.408       .  A
C2103      C2104   1.400       .  A
C2103      H2111   1.083       .  S
C2104      H2112   1.083       .  S
C2113      C2114   1.408       .  A
C2113      C2118   1.408       .  A
C2114      C2115   1.400       .  A
C2114      H2127   1.083       .  S
C2115      C2116   1.400       .  A
C2115      H2128   1.084       .  S
C2116      C2117   1.400       .  A
C2116      C2119   1.443       .  S
C2117      C2118   1.400       .  A
C2117      H2129   1.083       .  S
C2118      H2130   1.083       .  S
C2119      C2120   1.208       .  T
C2120      C2121   1.443       .  S
C2121      C2122   1.401       .  A
C2121      C2126   1.399       .  A
C2122      C2123   1.402       .  A
C2122      H2131   1.083       .  S
C2123      C2124   1.408       .  A
C2123      H2132   1.083       .  S
C2124      C2125   1.408       .  A
C2125      C2126   1.398       .  A
C2125      H2133   1.083       .  S
C2126      H2134   1.084       .  S
C2135      C2136   1.408       .  A
C2135      C2140   1.409       .  A
C2136      C2137   1.398       .  A
C2136      H2149   1.083       .  S
C2137      C2138   1.400       .  A
C2137      H2150   1.084       .  S
C2138      C2139   1.401       .  A
C2138      C2141   1.444       .  S
C2139      C2140   1.402       .  A
C2139      H2151   1.083       .  S
C2140      H2152   1.083       .  S
C2141      C2142   1.208       .  T
C2142      C2143   1.443       .  S
C2143      C2144   1.404       .  A
C2143      C2148   1.398       .  A
C2144      C2145   1.406       .  A
C2144      H2153   1.083       .  S
C2145      C2146   1.406       .  A
C2145      H2154   1.083       .  S
C2146      C2147   1.404       .  A
C2147      C2148   1.394       .  A
C2147      H2155   1.084       .  S
C2148      H2156   1.084       .  S
C2157      C2158   1.408       .  A
C2157      C2162   1.407       .  A
C2158      C2159   1.396       .  A
C2158      H2171   1.083       .  S
C2159      C2160   1.398       .  A
C2159      H2172   1.084       .  S
C2160      C2161   1.400       .  A
C2160      C2163   1.438       .  S
C2161      C2162   1.400       .  A
C2161      H2173   1.083       .  S
C2162      H2174   1.083       .  S
C2163      C2164   1.205       .  T
C2164      C2165   1.438       .  S
C2165      C2166   1.398       .  A
C2165      C2170   1.400       .  A
C2166      C2167   1.397       .  A
C2166      H2175   1.084       .  S
C2167      C2168   1.407       .  A
C2167      H2176   1.083       .  S
C2168      C2169   1.407       .  A
C2169      C2170   1.399       .  A
C2169      H2177   1.083       .  S
C2170      H2178   1.083       .  S
C2179      C2180   1.408       .  A
C2179      C2184   1.407       .  A
C2180      C2181   1.399       .  A
C2180      H2193   1.083       .  S
C2181      C2182   1.400       .  A
C2181      H2194   1.083       .  S
C2182      C2183   1.400       .  A
C2182      C2185   1.440       .  S
C2183      C2184   1.398       .  A
C2183      H2195   1.084       .  S
C2184      H2196   1.083       .  S
C2185      C2186   1.206       .  T
C2186      C2187   1.440       .  S
C2187      C2188   1.400       .  A
C2187      C2192   1.400       .  A
C2188      C2189   1.398       .  A
C2188      H2197   1.084       .  S
C2189      C2190   1.407       .  A
C2189      H2198   1.083       .  S
C2190      C2191   1.408       .  A
C2191      C2192   1.400       .  A
C2191      H2199   1.083       .  S
C2192      H2200   1.083       .  S
C2201      C2202   1.408       .  A
C2201      C2206   1.409       .  A
C2202      C2203   1.396       .  A
C2202      H2215   1.083       .  S
C2203      C2204   1.398       .  A
C2203      H2216   1.084       .  S
C2204      C2205   1.402       .  A
C2204      C2207   1.444       .  S
C2205      C2206   1.404       .  A
C2205      H2217   1.083       .  S
C2206      H2218   1.083       .  S
C2207      C2208   1.209       .  T
C2208      C2209   1.444       .  S
C2209      C2210   1.402       .  A
C2209      C2214   1.399       .  A
C2210      C2211   1.404       .  A
C2210      H2219   1.083       .  S
C2211      C2212   1.409       .  A
C2211      H2220   1.083       .  S
C2212      C2213   1.408       .  A
C2213      C2214   1.396       .  A
C2213      H2221   1.083       .  S
C2214      H2222   1.084       .  S
C2223      C2224   1.408       .  A
C2223      C2228   1.408       .  A
C2224      C2225   1.400       .  A
C2224      H2237   1.083       .  S
C2225      C2226   1.401       .  A
C2225      H2238   1.083       .  S
C2226      C2227   1.399       .  A
C2226      C2229   1.441       .  S
C2227      C2228   1.397       .  A
C2227      H2239   1.084       .  S
C2228      H2240   1.083       .  S
C2229      C2230   1.206       .  T
C2230      C2231   1.441       .  S
C2231      C2232   1.399       .  A
C2231      C2236   1.401       .  A
C2232      C2233   1.398       .  A
C2232      H2241   1.084       .  S
C2233      C2234   1.408       .  A
C2233      H2242   1.083       .  S
C2234      C2235   1.407       .  A
C2235      C2236   1.400       .  A
C2235      H2243   1.083       .  S
C2236      H2244   1.083       .  S
C2245      C2246   1.406       .  A
C2245      C2250   1.405       .  A
C2246      C2247   1.405       .  A
C2246      H2259   1.083       .  S
C2247      C2248   1.404       .  A
C2247      H2260   1.083       .  S
C2248      C2249   1.398       .  A
C2248      C2251   1.443       .  S
C2249      C2250   1.394       .  A
C2249      H2261   1.084       .  S
C2250      H2262   1.084       .  S
C2251      C2252   1.208       .  T
C2252      C2253   1.443       .  S
C2253      C2254   1.400       .  A
C2253      C2258   1.400       .  A
C2254      C2255   1.398       .  A
C2254      H2263   1.084       .  S
C2255      C2256   1.407       .  A
C2255      H2264   1.083       .  S
C2256      C2257   1.409       .  A
C2257      C2258   1.400       .  A
C2257      H2265   1.083       .  S
C2258      H2266   1.083       .  S
C2267      C2268   1.408       .  A
C2267      C2272   1.409       .  A
C2268      C2269   1.403       .  A
C2268      H2281   1.083       .  S
C2269      C2270   1.402       .  A
C2269      H2282   1.083       .  S
C2270      C2271   1.400       .  A
C2270      C2273   1.448       .  S
C2271      C2272   1.400       .  A
C2271      H2283   1.083       .  S
C2272      H2284   1.083       .  S
C2273      C2274   1.211       .  T
C2274      C2275   1.447       .  S
C2275      C2276   1.401       .  A
C2275      C2280   1.401       .  A
C2276      C2277   1.402       .  A
C2276      H2285   1.083       .  S
C2277      C2278   1.408       .  A
C2277      H2286   1.083       .  S
C2278      C2279   1.409       .  A
C2279      C2280   1.401       .  A
C2279      H2287   1.083       .  S
C2280      H2288   1.083       .  S
C2289      C2290   1.409       .  A
C2289      C2294   1.408       .  A
C2290      C2291   1.405       .  A
C2290      H2303   1.083       .  S
C2291      C2292   1.403       .  A
C2291      H2304   1.083       .  S
C2292      C2293   1.399       .  A
C2292      C2295   1.448       .  S
C2293      C2294   1.398       .  A
C2293      H2305   1.084       .  S
C2294      H2306   1.083       .  S
C2295      C2296   1.211       .  T
C2296      C2297   1.448   1_554  S
C2297      C2298   1.401       .  A
C2297      C2302   1.401       .  A
C2298      C2299   1.401       .  A
C2298      H2307   1.083   1_556  S
C2299      C2300   1.409       .  A
C2299      H2308   1.083       .  S
C2300      C2301   1.408       .  A
C2301      C2302   1.402       .  A
C2301      H2309   1.083       .  S
C2302      H2310   1.083       .  S
C2311      C2312   1.408       .  A
C2311      C2316   1.408       .  A
C2312      C2313   1.396       .  A
C2312      H2325   1.083       .  S
C2313      C2314   1.399       .  A
C2313      H2326   1.084       .  S
C2314      C2315   1.401       .  A
C2314      C2317   1.443       .  S
C2315      C2316   1.403       .  A
C2315      H2327   1.083       .  S
C2316      H2328   1.083       .  S
C2317      C2318   1.208       .  T
C2318      C2319   1.443       .  S
C2319      C2320   1.401       .  A
C2319      C2324   1.399       .  A
C2320      C2321   1.402       .  A
C2320      H2329   1.083       .  S
C2321      C2322   1.409       .  A
C2321      H2330   1.083       .  S
C2322      C2323   1.407       .  A
C2323      C2324   1.398       .  A
C2323      H2331   1.083       .  S
C2324      H2332   1.084       .  S
C2333      C2334   1.408       .  A
C2333      C2338   1.409       .  A
C2334      C2335   1.403       .  A
C2334      H2347   1.083       .  S
C2335      C2336   1.402       .  A
C2335      H2348   1.083       .  S
C2336      C2337   1.399       .  A
C2336      C2339   1.444       .  S
C2337      C2338   1.398       .  A
C2337      H2349   1.084       .  S
C2338      H2350   1.083       .  S
C2339      C2340   1.209       .  T
C2340      C2341   1.444       .  S
C2341      C2342   1.399       .  A
C2341      C2346   1.401       .  A
C2342      C2343   1.399       .  A
C2342      H2351   1.084       .  S
C2343      C2344   1.408       .  A
C2343      H2352   1.083       .  S
C2344      C2345   1.408       .  A
C2345      C2346   1.402       .  A
C2345      H2353   1.083       .  S
C2346      H2354   1.083       .  S
C2355      C2356   1.408       .  A
C2355      C2360   1.408       .  A
C2356      C2357   1.400       .  A
C2356      H2369   1.083       .  S
C2357      C2358   1.400       .  A
C2357      H2370   1.083       .  S
C2358      C2359   1.399       .  A
C2358      C2361   1.439       .  S
C2359      C2360   1.397       .  A
C2359      H2371   1.084       .  S
C2360      H2372   1.083       .  S
C2361      C2362   1.205       .  T
C2362      C2363   1.438       .  S
C2363      C2364   1.401       .  A
C2363      C2368   1.398       .  A
C2364      C2365   1.401       .  A
C2364      H2373   1.083       .  S
C2365      C2366   1.408       .  A
C2365      H2374   1.083       .  S
C2366      C2367   1.406       .  A
C2367      C2368   1.394       .  A
C2367      H2375   1.083       .  S
C2368      H2376   1.084       .  S
C2377      C2378   1.407       .  A
C2377      C2382   1.408       .  A
C2378      C2379   1.401       .  A
C2378      H2391   1.083       .  S
C2379      C2380   1.400       .  A
C2379      H2392   1.083       .  S
C2380      C2381   1.398       .  A
C2380      C2383   1.439       .  S
C2381      C2382   1.396       .  A
C2381      H2393   1.084       .  S
C2382      H2394   1.083       .  S
C2383      C2384   1.206       .  T
C2384      C2385   1.439   1_556  S
C2385      C2386   1.398       .  A
C2385      C2390   1.400       .  A
C2386      C2387   1.396       .  A
C2386      H2395   1.084       .  S
C2387      C2388   1.408       .  A
C2387      H2396   1.083       .  S
C2388      C2389   1.407       .  A
C2389      C2390   1.401       .  A
C2389      H2397   1.083       .  S
C2390      H2398   1.083       .  S
C2399      C2400   1.409       .  A
C2399      C2404   1.409       .  A
C2400      C2401   1.400       .  A
C2400      H2413   1.083       .  S
C2401      C2402   1.400       .  A
C2401      H2414   1.084       .  S
C2402      C2403   1.403       .  A
C2402      C2405   1.451       .  S
C2403      C2404   1.406       .  A
C2403      H2415   1.083       .  S
C2404      H2416   1.083       .  S
C2405      C2406   1.213       .  T
C2406      C2407   1.451       .  S
C2407      C2408   1.402       .  A
C2407      C2412   1.401       .  A
C2408      C2409   1.404       .  A
C2408      H2417   1.083       .  S
C2409      C2410   1.409       .  A
C2409      H2418   1.083       .  S
C2410      C2411   1.409       .  A
C2411      C2412   1.402       .  A
C2411      H2419   1.083       .  S
C2412      H2420   1.083       .  S
C2421      C2422   1.408       .  A
C2421      C2426   1.408       .  A
C2422      C2423   1.399       .  A
C2422      H2435   1.083       .  S
C2423      C2424   1.400       .  A
C2423      H2436   1.083       .  S
C2424      C2425   1.399       .  A
C2424      C2427   1.439       .  S
C2425      C2426   1.397       .  A
C2425      H2437   1.084       .  S
C2426      H2438   1.083       .  S
C2427      C2428   1.206       .  T
C2428      C2429   1.439       .  S
C2429      C2430   1.399       .  A
C2429      C2434   1.399       .  A
C2430      C2431   1.398       .  A
C2430      H2439   1.084       .  S
C2431      C2432   1.408       .  A
C2431      H2440   1.083       .  S
C2432      C2433   1.407       .  A
C2433      C2434   1.399       .  A
C2433      H2441   1.083       .  S
C2434      H2442   1.084       .  S
C2443      C2444   1.408       .  A
C2443      C2448   1.407       .  A
C2444      C2445   1.401       .  A
C2444      H2457   1.083   1_556  S
C2445      C2446   1.400       .  A
C2445      H2458   1.083       .  S
C2446      C2447   1.400       .  A
C2446      C2449   1.441       .  S
C2447      C2448   1.397       .  A
C2447      H2459   1.084       .  S
C2448      H2460   1.083       .  S
C2449      C2450   1.207       .  T
C2450      C2451   1.440       .  S
C2451      C2452   1.397       .  A
C2451      C2456   1.403       .  A
C2452      C2453   1.392       .  A
C2452      H2461   1.084       .  S
C2453      C2454   1.406       .  A
C2453      H2462   1.083       .  S
C2454      C2455   1.407       .  A
C2455      C2456   1.405       .  A
C2455      H2463   1.083       .  S
C2456      H2464   1.083       .  S
C2465      C2466   1.408       .  A
C2465      C2470   1.409       .  A
C2466      C2467   1.402       .  A
C2466      H2479   1.083       .  S
C2467      C2468   1.402       .  A
C2467      H2480   1.083       .  S
C2468      C2469   1.400       .  A
C2468      C2471   1.445       .  S
C2469      C2470   1.399       .  A
C2469      H2481   1.084       .  S
C2470      H2482   1.083       .  S
C2471      C2472   1.209       .  T
C2472      C2473   1.445       .  S
C2473      C2474   1.401       .  A
C2473      C2478   1.400       .  A
C2474      C2475   1.401       .  A
C2474      H2483   1.083       .  S
C2475      C2476   1.408       .  A
C2475      H2484   1.083       .  S
C2476      C2477   1.408       .  A
C2477      C2478   1.400       .  A
C2477      H2485   1.083       .  S
C2478      H2486   1.083       .  S
C2487      C2488   1.408   1_556  A
C2487      C2492   1.409       .  A
C2488      C2489   1.399       .  A
C2488      H2501   1.083       .  S
C2489      C2490   1.400       .  A
C2489      H2502   1.084       .  S
C2490      C2491   1.401   1_554  A
C2490      C2493   1.446       .  S
C2491      C2492   1.403       .  A
C2491      H2503   1.083       .  S
C2492      H2504   1.083       .  S
C2493      C2494   1.210       .  T
C2494      C2495   1.446       .  S
C2495      C2496   1.403       .  A
C2495      C2500   1.398       .  A
C2496      C2497   1.405       .  A
C2496      H2505   1.083       .  S
C2497      C2498   1.408       .  A
C2497      H2506   1.083       .  S
C2498      C2499   1.408       .  A
C2499      C2500   1.396       .  A
C2499      H2507   1.083       .  S
C2500      H2508   1.084       .  S
C2509      C2510   1.407       .  A
C2509      C2514   1.408       .  A
C2510      C2511   1.401       .  A
C2510      H2523   1.083       .  S
C2511      C2512   1.401       .  A
C2511      H2524   1.083       .  S
C2512      C2513   1.398       .  A
C2512      C2515   1.441       .  S
C2513      C2514   1.397       .  A
C2513      H2525   1.084       .  S
C2514      H2526   1.083       .  S
C2515      C2516   1.207       .  T
C2516      C2517   1.441       .  S
C2517      C2518   1.399       .  A
C2517      C2522   1.401       .  A
C2518      C2519   1.398       .  A
C2518      H2527   1.084       .  S
C2519      C2520   1.408       .  A
C2519      H2528   1.083       .  S
C2520      C2521   1.408       .  A
C2521      C2522   1.400       .  A
C2521      H2529   1.083       .  S
C2522      H2530   1.083       .  S
C2531      C2532   1.407       .  A
C2531      C2536   1.409       .  A
C2532      C2533   1.391       .  A
C2532      H2545   1.083       .  S
C2533      C2534   1.397       .  A
C2533      H2546   1.084       .  S
C2534      C2535   1.404       .  A
C2534      C2537   1.443       .  S
C2535      C2536   1.407       .  A
C2535      H2547   1.083       .  S
C2536      H2548   1.083       .  S
C2537      C2538   1.208       .  T
C2538      C2539   1.443       .  S
C2539      C2540   1.403       .  A
C2539      C2544   1.398       .  A
C2540      C2541   1.406       .  A
C2540      H2549   1.083       .  S
C2541      C2542   1.408       .  A
C2541      H2550   1.083       .  S
C2542      C2543   1.405       .  A
C2543      C2544   1.393       .  A
C2543      H2551   1.083       .  S
C2544      H2552   1.084       .  S
C2553      C2554   1.408       .  A
C2553      C2558   1.408       .  A
C2554      C2555   1.403       .  A
C2554      H2567   1.083       .  S
C2555      C2556   1.402       .  A
C2555      H2568   1.083       .  S
C2556      C2557   1.399       .  A
C2556      C2559   1.446       .  S
C2557      C2558   1.399       .  A
C2557      H2569   1.084       .  S
C2558      H2570   1.083       .  S
C2559      C2560   1.210       .  T
C2560      C2561   1.446       .  S
C2561      C2562   1.401       .  A
C2561      C2566   1.401       .  A
C2562      C2563   1.400       .  A
C2562      H2571   1.084       .  S
C2563      C2564   1.408       .  A
C2563      H2572   1.083       .  S
C2564      C2565   1.409       .  A
C2565      C2566   1.402       .  A
C2565      H2573   1.083   1_655  S
C2566      H2574   1.083       .  S
C2575      C2576   1.407       .  A
C2575      C2580   1.407       .  A
C2576      C2577   1.400       .  A
C2576      H2589   1.083       .  S
C2577      C2578   1.400       .  A
C2577      H2590   1.083       .  S
C2578      C2579   1.398       .  A
C2578      C2581   1.437       .  S
C2579      C2580   1.395       .  A
C2579      H2591   1.084       .  S
C2580      H2592   1.083       .  S
C2581      C2582   1.204       .  T
C2582      C2583   1.437       .  S
C2583      C2584   1.400       .  A
C2583      C2588   1.398       .  A
C2584      C2585   1.399       .  A
C2584      H2593   1.083       .  S
C2585      C2586   1.407       .  A
C2585      H2594   1.083       .  S
C2586      C2587   1.407       .  A
C2587      C2588   1.395       .  A
C2587      H2595   1.083       .  S
C2588      H2596   1.084       .  S
C2597      C2598   1.408       .  A
C2597      C2602   1.407       .  A
C2598      C2599   1.402       .  A
C2598      H2611   1.083       .  S
C2599      C2600   1.401       .  A
C2599      H2612   1.083       .  S
C2600      C2601   1.398       .  A
C2600      C2603   1.440       .  S
C2601      C2602   1.395       .  A
C2601      H2613   1.084       .  S
C2602      H2614   1.083       .  S
C2603      C2604   1.206       .  T
C2604      C2605   1.440       .  S
C2605      C2606   1.400       .  A
C2605      C2610   1.399       .  A
C2606      C2607   1.400       .  A
C2606      H2615   1.083       .  S
C2607      C2608   1.407       .  A
C2607      H2616   1.083       .  S
C2608      C2609   1.408       .  A
C2609      C2610   1.398       .  A
C2609      H2617   1.083       .  S
C2610      H2618   1.084       .  S
C2619      C2620   1.407       .  A
C2619      C2624   1.406       .  A
C2620      C2621   1.405       .  A
C2620      H2633   1.083       .  S
C2621      C2622   1.403       .  A
C2621      H2634   1.083       .  S
C2622      C2623   1.397       .  A
C2622      C2625   1.440       .  S
C2623      C2624   1.392       .  A
C2623      H2635   1.084       .  S
C2624      H2636   1.083       .  S
C2625      C2626   1.207       .  T
C2626      C2627   1.441       .  S
C2627      C2628   1.399       .  A
C2627      C2632   1.401       .  A
C2628      C2629   1.396       .  A
C2628      H2637   1.084       .  S
C2629      C2630   1.407       .  A
C2629      H2638   1.083       .  S
C2630      C2631   1.408       .  A
C2631      C2632   1.402       .  A
C2631      H2639   1.083       .  S
C2632      H2640   1.083       .  S
C2641      C2642   1.409       .  A
C2641      C2646   1.408       .  A
C2642      C2643   1.398       .  A
C2642      H2655   1.083       .  S
C2643      C2644   1.399       .  A
C2643      H2656   1.084       .  S
C2644      C2645   1.402       .  A
C2644      C2647   1.446       .  S
C2645      C2646   1.404       .  A
C2645      H2657   1.083       .  S
C2646      H2658   1.083       .  S
C2647      C2648   1.210       .  T
C2648      C2649   1.446       .  S
C2649      C2650   1.400       .  A
C2649      C2654   1.401       .  A
C2650      C2651   1.400       .  A
C2650      H2659   1.083       .  S
C2651      C2652   1.408       .  A
C2651      H2660   1.083       .  S
C2652      C2653   1.408       .  A
C2653      C2654   1.401       .  A
C2653      H2661   1.083       .  S
C2654      H2662   1.083       .  S
C2663      C2664   1.408       .  A
C2663      C2668   1.407       .  A
C2664      C2665   1.398       .  A
C2664      H2677   1.083       .  S
C2665      C2666   1.399       .  A
C2665      H2678   1.084       .  S
C2666      C2667   1.401       .  A
C2666      C2669   1.442       .  S
C2667      C2668   1.401       .  A
C2667      H2679   1.083       .  S
C2668      H2680   1.083       .  S
C2669      C2670   1.208       .  T
C2670      C2671   1.442       .  S
C2671      C2672   1.401       .  A
C2671      C2676   1.399       .  A
C2672      C2673   1.401       .  A
C2672      H2681   1.083       .  S
C2673      C2674   1.408       .  A
C2673      H2682   1.083       .  S
C2674      C2675   1.408       .  A
C2675      C2676   1.398       .  A
C2675      H2683   1.083       .  S
C2676      H2684   1.084       .  S
C2685      C2686   1.407       .  A
C2685      C2690   1.409       .  A
C2686      C2687   1.401       .  A
C2686      H2699   1.083       .  S
C2687      C2688   1.401       .  A
C2687      H2700   1.083       .  S
C2688      C2689   1.400       .  A
C2688      C2691   1.443       .  S
C2689      C2690   1.399       .  A
C2689      H2701   1.084       .  S
C2690      H2702   1.083       .  S
C2691      C2692   1.208       .  T
C2692      C2693   1.443       .  S
C2693      C2694   1.402       .  A
C2693      C2698   1.398       .  A
C2694      C2695   1.403       .  A
C2694      H2703   1.083       .  S
C2695      C2696   1.408       .  A
C2695      H2704   1.083       .  S
C2696      C2697   1.408       .  A
C2697      C2698   1.397       .  A
C2697      H2705   1.083       .  S
C2698      H2706   1.084       .  S
C2707      C2708   1.408       .  A
C2707      C2712   1.409       .  A
C2708      C2709   1.404       .  A
C2708      H2721   1.083       .  S
C2709      C2710   1.403       .  A
C2709      H2722   1.083       .  S
C2710      C2711   1.398       .  A
C2710      C2713   1.445       .  S
C2711      C2712   1.397       .  A
C2711      H2723   1.084       .  S
C2712      H2724   1.083       .  S
C2713      C2714   1.209       .  T
C2714      C2715   1.445       .  S
C2715      C2716   1.402       .  A
C2715      C2720   1.399       .  A
C2716      C2717   1.403       .  A
C2716      H2725   1.083       .  S
C2717      C2718   1.408       .  A
C2717      H2726   1.083       .  S
C2718      C2719   1.409       .  A
C2719      C2720   1.398       .  A
C2719      H2727   1.083       .  S
C2720      H2728   1.084       .  S
C2729      C2730   1.409       .  A
C2729      C2734   1.408       .  A
C2730      C2731   1.403       .  A
C2730      H2743   1.083       .  S
C2731      C2732   1.401       .  A
C2731      H2744   1.083       .  S
C2732      C2733   1.401       .  A
C2732      C2735   1.448       .  S
C2733      C2734   1.400       .  A
C2733      H2745   1.084       .  S
C2734      H2746   1.083       .  S
C2735      C2736   1.211       .  T
C2736      C2737   1.448       .  S
C2737      C2738   1.398       .  A
C2737      C2742   1.404       .  A
C2738      C2739   1.397       .  A
C2738      H2747   1.084       .  S
C2739      C2740   1.409       .  A
C2739      H2748   1.083       .  S
C2740      C2741   1.409       .  A
C2741      C2742   1.406       .  A
C2741      H2749   1.083       .  S
C2742      H2750   1.083       .  S
C2751      C2752   1.403       .  A
C2751      C2756   1.405       .  A
C2752      C2753   1.395       .  A
C2752      H2765   1.084       .  S
C2753      C2754   1.400       .  A
C2753      H2766   1.084       .  S
C2754      C2755   1.403       .  A
C2754      C2757   1.442       .  S
C2755      C2756   1.404       .  A
C2755      H2767   1.083       .  S
C2756      H2768   1.083       .  S
C2757      C2758   1.207       .  T
C2758      C2759   1.442       .  S
C2759      C2760   1.401       .  A
C2759      C2764   1.399       .  A
C2760      C2761   1.402       .  A
C2760      H2769   1.083       .  S
C2761      C2762   1.409       .  A
C2761      H2770   1.083       .  S
C2762      C2763   1.407       .  A
C2763      C2764   1.397       .  A
C2763      H2771   1.083       .  S
C2764      H2772   1.084       .  S
C2773      C2774   1.407       .  A
C2773      C2778   1.408       .  A
C2774      C2775   1.399       .  A
C2774      H2787   1.083       .  S
C2775      C2776   1.400       .  A
C2775      H2788   1.084       .  S
C2776      C2777   1.399       .  A
C2776      C2779   1.440       .  S
C2777      C2778   1.398       .  A
C2777      H2789   1.084       .  S
C2778      H2790   1.083       .  S
C2779      C2780   1.206       .  T
C2780      C2781   1.440       .  S
C2781      C2782   1.400       .  A
C2781      C2786   1.399       .  A
C2782      C2783   1.400       .  A
C2782      H2791   1.083       .  S
C2783      C2784   1.407       .  A
C2783      H2792   1.083       .  S
C2784      C2785   1.408       .  A
C2785      C2786   1.398       .  A
C2785      H2793   1.083       .  S
C2786      H2794   1.084       .  S
C2795      C2796   1.409       .  A
C2795      C2800   1.408       .  A
C2796      C2797   1.401       .  A
C2796      H2809   1.083       .  S
C2797      C2798   1.400       .  A
C2797      H2810   1.083       .  S
C2798      C2799   1.401       .  A
C2798      C2801   1.446       .  S
C2799      C2800   1.401       .  A
C2799      H2811   1.083       .  S
C2800      H2812   1.083       .  S
C2801      C2802   1.210       .  T
C2802      C2803   1.446       .  S
C2803      C2804   1.400       .  A
C2803      C2808   1.402       .  A
C2804      C2805   1.399       .  A
C2804      H2813   1.084       .  S
C2805      C2806   1.408       .  A
C2805      H2814   1.083       .  S
C2806      C2807   1.409       .  A
C2807      C2808   1.403       .  A
C2807      H2815   1.083       .  S
C2808      H2816   1.083       .  S
