geometry optimzed in LAMMPS
_audit_creation_date              2020-12-01 
_audit_creation_method            'lammps2cif' 
_symmetry_space_group_name_H-M    'P1' 
_symmetry_Int_Tables_number       1 
_symmetry_cell_setting            triclinic 
loop_ 
_symmetry_equiv_pos_as_xyz 
  x,y,z 
_cell_length_a                    35.29278956 
_cell_length_b                    35.39187076227831 
_cell_length_c                    45.60582199337335 
_cell_angle_alpha                 89.86927570322197 
_cell_angle_beta                  90.76252940591594 
_cell_angle_gamma                 120.01429632539764 
loop_ 
_atom_site_label 
_atom_site_type_symbol 
_atom_site_fract_x 
_atom_site_fract_y 
_atom_site_fract_z 
_atom_site_charge 
Fe1        Fe  0.36438730  0.34177613  0.46673915     1.65800
Fe2        Fe  0.29983967  0.38381028  0.48590112     1.73200
Fe3        Fe  0.25893063  0.29066878  0.44457858     1.54400
O4          O  0.30006492  0.29482838  0.41087435    -0.82500
O5          O  0.23338005  0.33832770  0.00224271    -0.80800
O6          O  0.36868309  0.34667395  0.42185683    -0.85000
O7          O  0.33906957  0.27486170  0.46334152    -0.79900
O8          O  0.24684640  0.33354194  0.42143407    -0.81600
O9          O  0.32176339  0.37382882  0.02423659    -0.84400
C10         C  0.30178801  0.24064630  0.46434432     0.96400
C11         C  0.33975875  0.32046712  0.40384152     1.03800
O12         O  0.30746506  0.33896301  0.46580977    -1.13400
O13         O  0.35777593  0.43613493  0.47149520    -0.75800
O14         O  0.40191048  0.40880921  0.46928803    -0.79300
O15         O  0.26695408  0.24272151  0.46500413    -0.80000
C16         C  0.39548118  0.44088257  0.46864329     0.95300
O17         O  0.35568546  0.33670693  0.01192041    -0.77900
O18         O  0.26867481  0.39303086  0.44948418    -0.83100
C19         C  0.20873487  0.30267997  0.49646800     0.97900
C20         C  0.25111563  0.37083567  0.42618690     1.03800
O21         O  0.21114689  0.28073752  0.47520243    -0.78800
C22         C  0.34066769  0.35216720  0.03081301     1.02100
Fe23       Fe  0.00220686  0.33746821  0.28983760     1.65800
Fe24       Fe  0.11083147  0.38436130  0.27384401     1.73200
Fe25       Fe  0.05978194  0.28909102  0.31238622     1.54400
O26         O  0.02384583  0.29280820  0.34641611    -0.82500
O27         O  0.13178691  0.34334534  0.25832560    -0.80800
O28         O  0.99915983  0.33837442  0.33507430    -0.85000
O29         O  0.96269943  0.27037717  0.29033632    -0.79900
O30         O  0.11515967  0.33229996  0.33552563    -0.81600
O31         O  0.07585118  0.37439443  0.23435283    -0.84400
C32         C  0.96661404  0.23672083  0.29070548     0.96400
C33         C  0.00551839  0.31466263  0.35322145     1.03800
O34         O  0.05781421  0.33708183  0.29189389    -1.13400
O35         O  0.10061940  0.43493702  0.28611911    -0.75800
O36         O  0.02882296  0.40405536  0.28937977    -0.79300
O37         O  0.00375393  0.23948694  0.29272266    -0.80000
C38         C  0.06639088  0.43756028  0.28869305     0.95300
O39         O  0.00386725  0.33712730  0.24464623    -0.77900
O40         O  0.14870603  0.39629298  0.31213665    -0.83100
C41         C  0.12441770  0.30490681  0.26243104     0.97900
C42         C  0.14552458  0.37176353  0.33362721     1.03800
O43         O  0.09655415  0.27982729  0.28094646    -0.78800
C44         C  0.03536017  0.35436700  0.22659303     1.02100
Fe45       Fe  0.35613463  0.98485109  0.38163448     1.65800
Fe46       Fe  0.40386969  0.09235341  0.40172330     1.73200
Fe47       Fe  0.30705560  0.04292811  0.36276294     1.54400
O48         O  0.30943205  0.00820247  0.32739266    -0.82500
O49         O  0.36280909  0.11165063  0.41964478    -0.80800
O50         O  0.35428191  0.98191113  0.33630619    -0.85000
O51         O  0.28914269  0.94555210  0.38142163    -0.79900
O52         O  0.35059452  0.09882813  0.34090415    -0.81600
O53         O  0.39620647  0.05636507  0.43968522    -0.84400
C54         C  0.25495653  0.94862155  0.38143416     0.96400
C55         C  0.32938820  0.98854104  0.31924661     1.03800
O56         O  0.35575691  0.04024046  0.38211550    -1.13400
O57         O  0.45379390  0.08315867  0.38690554    -0.75800
O58         O  0.42300944  0.01199327  0.38028254    -0.79300
O59         O  0.25705718  0.98552792  0.38068236    -0.80000
C60         C  0.45631575  0.04969466  0.38079127     0.95300
O61         O  0.35683627  0.98542520  0.42681646    -0.77900
O62         O  0.41473225  0.13168098  0.36516544    -0.83100
C63         C  0.32428726  0.10490563  0.41554574     0.97900
C64         C  0.39045683  0.12861912  0.34337132     1.03800
O65         O  0.29910047  0.07859290  0.39594106    -0.78800
C66         C  0.37448736  0.01581323  0.44595325     1.02100
Fe67       Fe  0.35882408  0.33702608  0.21700322     1.65800
Fe68       Fe  0.40297057  0.27739559  0.19133251     1.73200
Fe69       Fe  0.31206029  0.23025534  0.23400113     1.54400
O70         O  0.32089323  0.26712973  0.27105254    -0.82500
O71         O  0.35995081  0.21583265  0.17442667    -0.80800
O72         O  0.36792346  0.33736592  0.26186011    -0.85000
O73         O  0.29232675  0.30950456  0.22276841    -0.79900
O74         O  0.35776805  0.21684079  0.25158072    -0.81600
O75         O  0.38744376  0.30419535  0.15577482    -0.84400
C76         C  0.25820015  0.27224648  0.22215784     0.96400
C77         C  0.34695099  0.30609072  0.27963140     1.03800
O78         O  0.35799645  0.28141735  0.21381942    -1.13400
O79         O  0.45526311  0.33770659  0.20342061    -0.75800
O80         O  0.42505178  0.37810124  0.21180323    -0.79300
O81         O  0.26026351  0.23772835  0.21997481    -0.80000
C82         C  0.45831073  0.37439614  0.20763770     0.95300
O83         O  0.35039157  0.33647163  0.17234103    -0.77900
O84         O  0.42012100  0.25094509  0.22646986    -0.83100
C85         C  0.32130912  0.18506032  0.17911530     0.97900
C86         C  0.39755818  0.22794230  0.24790935     1.03800
O87         O  0.29855936  0.18748716  0.19945809    -0.78800
C88         C  0.36574229  0.32397298  0.15171604     1.02100
Fe89       Fe  0.65659378  0.63935812  0.45669958     1.65800
Fe90       Fe  0.60998440  0.69839885  0.43521454     1.73200
Fe91       Fe  0.70470019  0.74530899  0.47608152     1.54400
O92         O  0.69204333  0.70350225  0.01140880    -0.82500
O93         O  0.65316003  0.75600808  0.41473443    -0.80800
O94         O  0.64231794  0.63396661  0.00098278    -0.85000
O95         O  0.72362790  0.66702907  0.46077448    -0.79900
O96         O  0.65405904  0.75544851  0.99588058    -0.81600
O97         O  0.61523814  0.66483942  0.39928443    -0.84400
C98         C  0.75725910  0.70458533  0.45951315     0.96400
C99         C  0.66674186  0.66406410  0.01893284     1.03800
O100        O  0.65716480  0.69476074  0.45578672    -1.13400
O101        O  0.55975675  0.64156441  0.45290791    -0.75800
O102        O  0.58980616  0.59985233  0.45323067    -0.79300
O103        O  0.75439319  0.73881025  0.45769321    -0.80000
C104        C  0.55654602  0.60437576  0.45402813     0.95300
O105        O  0.66086989  0.64056627  0.41186104    -0.77900
O106        O  0.60072202  0.73180170  0.46941214    -0.83100
C107        C  0.69004471  0.78903103  0.42112259     0.97900
C108        C  0.62276223  0.75032203  0.49254094     1.03800
O109        O  0.71218025  0.78964148  0.44349840    -0.78800
C110        C  0.63864226  0.64780056  0.39277429     1.02100
Fe111      Fe  0.00184874  0.33451639  0.03877258     1.65800
Fe112      Fe  0.89840008  0.28157995  0.06503138     1.73200
Fe113      Fe  0.93375738  0.22691944  0.02464117     1.54400
O114        O  0.97645686  0.26694381  0.48796548    -0.82500
O115        O  0.87384926  0.21702288  0.07857833    -0.80800
O116        O  0.00047455  0.33792032  0.49510595    -0.85000
O117        O  0.03921666  0.30482484  0.04338417    -0.79900
O118        O  0.88935484  0.21649599  0.50630902    -0.81600
O119        O  0.93784874  0.30271267  0.10213867    -0.84400
C120        C  0.03467759  0.26961310  0.03306167     0.96400
C121        C  0.98909546  0.30519869  0.47821644     1.03800
O122        O  0.94576368  0.28152713  0.04329580    -1.13400
O123        O  0.91425540  0.34532848  0.05703298    -0.75800
O124        O  0.97608480  0.37486057  0.03285093    -0.79300
O125        O  0.99740744  0.23798442  0.02598890    -0.80000
C126        C  0.94490002  0.37738863  0.04400430     0.95300
O127        O  0.00603468  0.34387152  0.08429823    -0.77900
O128        O  0.85999369  0.26322097  0.02685544    -0.83100
C129        C  0.88829506  0.19047426  0.08020709     0.97900
C130        C  0.85152642  0.22986899  0.01161131     1.03800
O131        O  0.91984273  0.19514096  0.06445618    -0.78800
C132        C  0.97903944  0.32831217  0.10552791     1.02100
Fe133      Fe  0.65635811  0.98986904  0.37371343     1.65800
Fe134      Fe  0.71679100  0.09488375  0.35091421     1.73200
Fe135      Fe  0.76395054  0.04783644  0.39165137     1.54400
O136        O  0.72719439  0.01941292  0.42860739    -0.82500
O137        O  0.77724780  0.11282726  0.33364892    -0.80800
O138        O  0.65649616  0.99602412  0.41878249    -0.85000
O139        O  0.68255663  0.94977169  0.37821822    -0.79900
O140        O  0.77982757  0.10692930  0.41036499    -0.81600
O141        O  0.68855906  0.05522039  0.31427957    -0.84400
C142        C  0.71925614  0.95178818  0.37738253     0.96400
C143        C  0.68808825  0.00620594  0.43681425     1.03800
O144        O  0.71256968  0.04436235  0.37182107    -1.13400
O145        O  0.65751238  0.08706797  0.36426762    -0.75800
O146        O  0.61620682  0.01594878  0.36972457    -0.79300
O147        O  0.75455271  0.98812856  0.37685754    -0.80000
C148        C  0.62064523  0.05343767  0.36786829     0.95300
O149        O  0.65647910  0.98488419  0.32880406    -0.77900
O150        O  0.74493176  0.13638079  0.38679870    -0.83100
C151        C  0.80766910  0.10394328  0.33710324     0.97900
C152        C  0.76881216  0.13585981  0.40775587     1.03800
O153        O  0.80593022  0.07774299  0.35680670    -0.78800
C154        C  0.66895329  0.01415748  0.30902138     1.02100
Fe155      Fe  0.65523285  0.99113734  0.12442881     1.65800
Fe156      Fe  0.61112527  0.88459101  0.14375697     1.73200
Fe157      Fe  0.70479563  0.93600442  0.10373742     1.54400
O158        O  0.70019661  0.97176447  0.06923500    -0.82500
O159        O  0.65407654  0.86623873  0.16023485    -0.80800
O160        O  0.64887636  0.98916190  0.07949517    -0.85000
O161        O  0.72216457  0.03185193  0.12093003    -0.79900
O162        O  0.66086344  0.88127440  0.08120373    -0.81600
O163        O  0.62209244  0.92141632  0.18173172    -0.84400
C164        C  0.75612289  0.02834354  0.12258897     0.96400
C165        C  0.67394692  0.98500868  0.06168960     1.03800
O166        O  0.65682015  0.93680388  0.12415252    -1.13400
O167        O  0.55881354  0.89207762  0.13124632    -0.75800
O168        O  0.58870174  0.96331677  0.12761017    -0.79300
O169        O  0.75352725  0.99146943  0.12391043    -0.80000
C170        C  0.55537000  0.92573045  0.12888384     0.95300
O171        O  0.66108744  0.99248597  0.16916662    -0.77900
O172        O  0.59855973  0.84622075  0.10641001    -0.83100
C173        C  0.69233502  0.87370688  0.15493429     0.97900
C174        C  0.62162269  0.85066539  0.08400991     1.03800
O175        O  0.71537318  0.89995288  0.13512309    -0.78800
C176        C  0.64456925  0.96209781  0.18812729     1.02100
Fe177      Fe  0.00416573  0.63984805  0.28990513     1.65800
Fe178      Fe  0.10992597  0.69729859  0.31440510     1.73200
Fe179      Fe  0.06503442  0.74855606  0.27621446     1.54400
O180        O  0.03812704  0.71558139  0.23735162    -0.82500
O181        O  0.13134291  0.75887062  0.33248517    -0.80800
O182        O  0.00768816  0.64367734  0.24474570    -0.85000
O183        O  0.96463293  0.66707163  0.28937937    -0.79900
O184        O  0.12506804  0.76555603  0.25923095    -0.81600
O185        O  0.07107914  0.66999668  0.35057855    -0.84400
C186        C  0.96823948  0.70440261  0.28945456     0.96400
C187        C  0.02060283  0.67646177  0.22788330     1.03800
O188        O  0.05961072  0.69522206  0.29373869    -1.13400
O189        O  0.09958999  0.63679708  0.30086430    -0.75800
O190        O  0.02984399  0.59933731  0.28865610    -0.79300
O191        O  0.00512623  0.73901765  0.28947108    -0.80000
C192        C  0.06623861  0.60159980  0.29271213     0.95300
O193        O  0.00078256  0.63510537  0.33503267    -0.77900
O194        O  0.14985797  0.72367672  0.27847861    -0.83100
C195        C  0.12181563  0.78907934  0.33122655     0.97900
C196        C  0.15158767  0.75123289  0.25987916     1.03800
O197        O  0.09341504  0.78727009  0.31308979    -0.78800
C198        C  0.03004838  0.64776166  0.35532150     1.02100
Fe199      Fe  0.35099787  0.98424523  0.13271220     1.65800
Fe200      Fe  0.29337402  0.88052695  0.10636174     1.73200
Fe201      Fe  0.24189087  0.92207823  0.14441051     1.54400
O202        O  0.27145027  0.93723925  0.18490116    -0.82500
O203        O  0.22922729  0.85778904  0.09127547    -0.80800
O204        O  0.34318977  0.98234421  0.17801500    -0.85000
O205        O  0.32491673  0.02443629  0.12765922    -0.79900
O206        O  0.21931247  0.85698366  0.15379246    -0.81600
O207        O  0.31581290  0.91878392  0.06975269    -0.84400
C208        C  0.28877892  0.02186183  0.13337940     0.96400
C209        C  0.31038868  0.96091379  0.19462018     1.03800
O210        O  0.29590558  0.92984000  0.12749003    -1.13400
O211        O  0.35655706  0.89345393  0.11566803    -0.75800
O212        O  0.38839441  0.95595410  0.13942108    -0.79300
O213        O  0.25512122  0.98578054  0.13931759    -0.80000
C214        C  0.38944850  0.92373912  0.12889312     0.95300
O215        O  0.36055174  0.98679423  0.08756283    -0.77900
O216        O  0.27285994  0.84340003  0.14411166    -0.83100
C217        C  0.20372134  0.87347907  0.08902764     0.97900
C218        C  0.24075552  0.83779020  0.15947653     1.03800
O219        O  0.20988176  0.90597244  0.10433345    -0.78800
C220        C  0.34306737  0.95934552  0.06643832     1.02100
Fe221      Fe  0.65365315  0.63982912  0.20491907     1.65800
Fe222      Fe  0.71511951  0.59634681  0.22881055     1.73200
Fe223      Fe  0.76051660  0.69013093  0.18860633     1.54400
O224        O  0.72307790  0.68713984  0.15266756    -0.82500
O225        O  0.77418845  0.63994297  0.24874376    -0.80800
O226        O  0.65455342  0.63421701  0.15987317    -0.85000
O227        O  0.68048685  0.70711348  0.20153587    -0.79900
O228        O  0.77346706  0.64706765  0.16747563    -0.81600
O229        O  0.68281539  0.60381827  0.26432867    -0.84400
C230        C  0.71808715  0.74082109  0.20409411     0.96400
C231        C  0.68592156  0.65813980  0.14295560     1.03800
O232        O  0.71006853  0.64208212  0.20786449    -1.13400
O233        O  0.65749891  0.54444147  0.21244369    -0.75800
O234        O  0.61470158  0.57287089  0.20687164    -0.79300
O235        O  0.75228735  0.73817399  0.20739045    -0.80000
C236        C  0.62019260  0.54024358  0.20772388     0.95300
O237        O  0.65243120  0.64357188  0.24998474    -0.77900
O238        O  0.74726202  0.58620822  0.19428625    -0.83100
C239        C  0.80640041  0.67720266  0.24274366     0.97900
C240        C  0.76714568  0.60903712  0.17203748     1.03800
O241        O  0.80503567  0.69937222  0.22140940    -0.78800
C242        C  0.66259862  0.62459538  0.26984071     1.02100
Fe243      Fe  0.00917512  0.64256509  0.04034379     1.65800
Fe244      Fe  0.90149738  0.59495931  0.02027049     1.73200
Fe245      Fe  0.95190042  0.69168187  0.05835983     1.54400
O246        O  0.98724636  0.68984558  0.09431770    -0.82500
O247        O  0.88071139  0.63560406  0.00198446    -0.80800
O248        O  0.00852583  0.64106138  0.08549810    -0.85000
O249        O  0.04887295  0.70960998  0.04137703    -0.79900
O250        O  0.89682406  0.64881216  0.08027842    -0.81600
O251        O  0.93646891  0.60245360  0.48324390    -0.84400
C252        C  0.04505740  0.74325818  0.03970013     0.96400
C253        C  0.00195395  0.66528815  0.10273736     1.03800
O254        O  0.95392120  0.64305066  0.03930829    -1.13400
O255        O  0.91125039  0.54484227  0.03509010    -0.75800
O256        O  0.98276898  0.57631931  0.04016373    -0.79300
O257        O  0.00792258  0.74059487  0.03930931    -0.80000
C258        C  0.94550315  0.54248039  0.03919628     0.95300
O259        O  0.00807310  0.64265022  0.49481880    -0.77900
O260        O  0.86274283  0.58445728  0.05685627    -0.83100
C261        C  0.88736385  0.67387387  0.00665219     0.97900
C262        C  0.86649930  0.60934053  0.07817786     1.03800
O263        O  0.91523028  0.69899875  0.02551290    -0.78800
C264        C  0.97675073  0.62365274  0.47615707     1.02100
C265        C  0.85392939  0.60222639  0.13107164    -0.10000
C266        C  0.83566824  0.59323956  0.10262749     0.06200
C267        C  0.79112310  0.58002071  0.09863464    -0.03800
C268        C  0.76670619  0.57983560  0.12273279    -0.08200
C269        C  0.78643230  0.59295500  0.15066106     0.05300
C270        C  0.82993030  0.60290946  0.15488731    -0.03200
Br271      Br  0.86037436  0.62581496  0.19151761    -0.02900
H272        H  0.88833019  0.61318709  0.13428253     0.09200
H273        H  0.73368689  0.57359488  0.11914046     0.07300
Br274      Br  0.76454222  0.56928318  0.06030452    -0.03400
C275        C  0.16490147  0.82365348  0.04686301    -0.10000
C276        C  0.16447088  0.85061541  0.06934302     0.06200
C277        C  0.12466266  0.84994164  0.07469342    -0.03800
C278        C  0.08567150  0.81762574  0.06148679    -0.08200
C279        C  0.08557942  0.78638495  0.04250561     0.05300
C280        C  0.12607400  0.79229023  0.03316584    -0.03200
Br281      Br  0.12971703  0.75709014  0.00258756    -0.02900
H282        H  0.19535258  0.82531082  0.04094865     0.09200
H283        H  0.05489531  0.81437466  0.06839599     0.07300
Br284      Br  0.11968319  0.88846370  0.10196414    -0.03400
C285        C  0.24170205  0.83120574  0.21295934    -0.10000
C286        C  0.22807438  0.81013247  0.18561750     0.06200
C287        C  0.19476725  0.76619570  0.18431717    -0.03800
C288        C  0.17341200  0.74491467  0.21001743    -0.08200
C289        C  0.18450303  0.76737381  0.23693129     0.05300
C290        C  0.21980022  0.81029372  0.23850950    -0.03200
Br291      Br  0.23475051  0.84316715  0.27442867    -0.02900
H292        H  0.26683946  0.86529908  0.21411365     0.09200
H293        H  0.14534566  0.71226656  0.20851155     0.07300
Br294      Br  0.17393995  0.73613215  0.14758478    -0.03400
C295        C  0.97370075  0.62987988  0.39298563    -0.10000
C296        C  0.01558360  0.63757270  0.38600362     0.06200
C297        C  0.04304584  0.63723131  0.40871942    -0.03800
C298        C  0.02939907  0.63230847  0.43773255    -0.08200
C299        C  0.98815342  0.62631704  0.44485106     0.05300
C300        C  0.95963300  0.62390067  0.42192996    -0.03200
Br301      Br  0.90195054  0.61488636  0.42797890    -0.02900
H302        H  0.95198184  0.62964132  0.37590332     0.09200
H303        H  0.05118138  0.63276757  0.45486281     0.07300
Br304      Br  0.09850979  0.64092585  0.40201783    -0.03400
C305        C  0.04667129  0.70538841  0.17833357    -0.10000
C306        C  0.01701827  0.67026967  0.19568913     0.06200
C307        C  0.98474752  0.63164115  0.18168113    -0.03800
C308        C  0.98248728  0.62932050  0.15100314    -0.08200
C309        C  0.01099077  0.66530226  0.13407628     0.05300
C310        C  0.04324942  0.70346379  0.14788746    -0.03200
Br311      Br  0.08198898  0.75454714  0.12605669    -0.02900
H312        H  0.07207087  0.73517121  0.18845815     0.09200
H313        H  0.95667156  0.60034335  0.14034209     0.07300
Br314      Br  0.93998918  0.58292408  0.20262116    -0.03400
C315        C  0.92776110  0.73547380  0.26406332    -0.10000
C316        C  0.92774352  0.70671489  0.28530360     0.06200
C317        C  0.88734802  0.67422369  0.29633587    -0.03800
C318        C  0.84817412  0.66824947  0.28407582    -0.08200
C319        C  0.84796473  0.69332917  0.26010808     0.05300
C320        C  0.88865761  0.72896570  0.25114337    -0.03200
Br321      Br  0.89503398  0.76760159  0.21943131    -0.02900
H322        H  0.95854155  0.76061515  0.25529394     0.09200
H323        H  0.81772731  0.64163269  0.29212721     0.07300
Br324      Br  0.88362182  0.63504041  0.32681189    -0.03400
C325        C  0.51028874  0.95953995  0.13861232    -0.10000
C326        C  0.51171846  0.92259622  0.12915094     0.06200
C327        C  0.47202507  0.88493868  0.12095424    -0.03800
C328        C  0.43246026  0.88544664  0.12191783    -0.08200
C329        C  0.43128989  0.92292761  0.13097369     0.05300
C330        C  0.47128487  0.96032087  0.13955002    -0.03200
Br331      Br  0.47758013  0.01533875  0.15165115    -0.02900
H332        H  0.54008724  0.98862332  0.14540026     0.09200
H333        H  0.40261448  0.85658018  0.11498158     0.07300
Br334      Br  0.46950539  0.83274083  0.10663639    -0.03400
C335        C  0.74693988  0.80716157  0.17401220    -0.10000
C336        C  0.72210922  0.78368371  0.19818527     0.06200
C337        C  0.69445534  0.79644909  0.21125628    -0.03800
C338        C  0.68807585  0.82862996  0.19814619    -0.08200
C339        C  0.70889629  0.84867951  0.17180149     0.05300
C340        C  0.74071359  0.83939804  0.16070300    -0.03200
Br341      Br  0.77340288  0.86513839  0.12574213    -0.02900
H342        H  0.76853448  0.79769703  0.16376283     0.09200
H343        H  0.66490066  0.83637882  0.20789280     0.07300
Br344      Br  0.66428492  0.77034345  0.24668551    -0.03400
C345        C  0.69720585  0.02050771  0.25912078    -0.10000
C346        C  0.66188288  0.00016834  0.27827456     0.06200
C347        C  0.62119678  0.96648572  0.26781506    -0.03800
C348        C  0.61633398  0.95409695  0.23837469    -0.08200
C349        C  0.65151503  0.97479046  0.21913668     0.05300
C350        C  0.69254484  0.00780083  0.22979336    -0.03200
Br351      Br  0.74403292  0.03437246  0.20603050    -0.02900
H352        H  0.72894475  0.04577026  0.26721901     0.09200
H353        H  0.58461608  0.92877821  0.23031161     0.07300
Br354      Br  0.57067540  0.93828677  0.29223097    -0.03400
C355        C  0.71765141  0.03073334  0.48678796    -0.10000
C356        C  0.68104327  0.00418611  0.46890122     0.06200
C357        C  0.64064364  0.97610194  0.48243067    -0.03800
C358        C  0.63712474  0.96976006  0.01310122    -0.08200
C359        C  0.67373597  0.99606649  0.03086555     0.05300
C360        C  0.71236057  0.02841767  0.01811425    -0.03200
Br361      Br  0.76327716  0.06657115  0.04108639    -0.02900
H362        H  0.74861981  0.05386709  0.47713063     0.09200
H363        H  0.60741770  0.94443129  0.02294433     0.07300
Br364      Br  0.58790387  0.93894002  0.46070138    -0.03400
C365        C  0.90598450  0.42028907  0.04764871    -0.10000
C366        C  0.94490201  0.41952571  0.04248561     0.06200
C367        C  0.98374655  0.45974032  0.03788654    -0.03800
C368        C  0.98250902  0.49852405  0.03711297    -0.08200
C369        C  0.94358347  0.49942207  0.04159396     0.05300
C370        C  0.90506435  0.45957062  0.04752558    -0.03200
Br371      Br  0.85083467  0.45637243  0.05743711    -0.02900
H372        H  0.87606577  0.39020129  0.05213924     0.09200
H373        H  0.01278287  0.52846555  0.03299008     0.07300
Br374      Br  0.04086307  0.46581296  0.03450580    -0.03400
C375        C  0.84879228  0.22996149  0.45364526    -0.10000
C376        C  0.83101574  0.21569044  0.48161687     0.06200
C377        C  0.78784954  0.18093121  0.48390178    -0.03800
C378        C  0.76520105  0.15761803  0.45862161    -0.08200
C379        C  0.78484774  0.16934702  0.43095340     0.05300
C380        C  0.82581575  0.20730199  0.42837947    -0.03200
Br381      Br  0.85351120  0.22592490  0.39110930    -0.02900
H382        H  0.88207268  0.25673055  0.45160869     0.09200
H383        H  0.73371091  0.12822136  0.46086078     0.07300
Br384      Br  0.74880680  0.16353955  0.02100763    -0.03400
C385        C  0.86321803  0.11205151  0.08999501    -0.10000
C386        C  0.86409772  0.15065853  0.09848794     0.06200
C387        C  0.83607279  0.14834249  0.12119041    -0.03800
C388        C  0.80375419  0.10768518  0.13138489    -0.08200
C389        C  0.79909749  0.06880109  0.11991723     0.05300
C390        C  0.83119499  0.07132615  0.10052782    -0.03200
Br391      Br  0.82896356  0.02052121  0.08368750    -0.02900
H392        H  0.88491728  0.11297238  0.07306155     0.09200
H393        H  0.78021948  0.10639253  0.14698464     0.07300
Br394      Br  0.83881295  0.19911426  0.13852861    -0.03400
C395        C  0.62519151  0.65470424  0.33984951    -0.10000
C396        C  0.64089288  0.63747460  0.36149221     0.06200
C397        C  0.65900292  0.61173581  0.35243362    -0.03800
C398        C  0.66519306  0.60789711  0.32266239    -0.08200
C399        C  0.65179992  0.62726768  0.30098190     0.05300
C400        C  0.62928527  0.64891195  0.31000583    -0.03200
Br401      Br  0.60091764  0.66963968  0.28364867    -0.02900
H402        H  0.60945773  0.67305345  0.34608516     0.09200
H403        H  0.68057625  0.58917638  0.31654425     0.07300
Br404      Br  0.67364534  0.57834770  0.37875320    -0.03400
C405        C  0.70993250  0.66795782  0.06194019    -0.10000
C406        C  0.66851402  0.65391083  0.04977847     0.06200
C407        C  0.63169247  0.63620208  0.06791656    -0.03800
C408        C  0.63751080  0.63632838  0.09837905    -0.08200
C409        C  0.67969039  0.65352090  0.11082479     0.05300
C410        C  0.71589466  0.66733486  0.09199693    -0.03200
Br411      Br  0.77475435  0.68547264  0.10475753    -0.02900
H412        H  0.73818761  0.68056199  0.04785826     0.09200
H413        H  0.60924553  0.62458830  0.11233026     0.07300
Br414      Br  0.57372370  0.61480084  0.05232377    -0.03400
C415        C  0.67529498  0.83078045  0.38297249    -0.10000
C416        C  0.70519754  0.82933167  0.40301440     0.06200
C417        C  0.74599733  0.86804374  0.40744140    -0.03800
C418        C  0.75239250  0.90801560  0.39642953    -0.08200
C419        C  0.71941901  0.90989150  0.37991779     0.05300
C420        C  0.68237493  0.87019989  0.37115048    -0.03200
Br421      Br  0.63924149  0.86764314  0.34377530    -0.02900
H422        H  0.64486338  0.80144967  0.37754624     0.09200
H423        H  0.78204559  0.93785098  0.40233523     0.07300
Br424      Br  0.79425684  0.86877471  0.42794580    -0.03400
C425        C  0.58805410  0.75046889  0.03862212    -0.10000
C426        C  0.59992044  0.76958159  0.01078225     0.06200
C427        C  0.60906857  0.81269660  0.00674879    -0.03800
C428        C  0.61031410  0.83729493  0.03097774    -0.08200
C429        C  0.60352012  0.81975363  0.05937519     0.05300
C430        C  0.58996853  0.77533284  0.06300338    -0.03200
Br431      Br  0.58207435  0.74957391  0.10110754    -0.02900
H432        H  0.58201135  0.71758573  0.04194245     0.09200
H433        H  0.62105234  0.87160165  0.02801445     0.07300
Br434      Br  0.61462579  0.83236307  0.47180018    -0.03400
C435        C  0.84049495  0.66841433  0.46630402    -0.10000
C436        C  0.85938284  0.68835045  0.99071389     0.06200
C437        C  0.85181138  0.72149788  0.00178700    -0.03800
C438        C  0.81919221  0.72820667  0.98912690    -0.08200
C439        C  0.80013060  0.70749130  0.46464986     0.05300
C440        C  0.80891006  0.67591689  0.45303219    -0.03200
Br441      Br  0.77681114  0.64036964  0.42000075    -0.02900
H442        H  0.84471432  0.64235609  0.45778421     0.09200
H443        H  0.81192127  0.75144364  0.99925137     0.07300
Br444      Br  0.87963721  0.75512482  0.03658806    -0.03400
C445        C  0.50579527  0.44865975  0.18781175    -0.10000
C446        C  0.50158994  0.41490282  0.20619685     0.06200
C447        C  0.53845589  0.42095120  0.22248210    -0.03800
C448        C  0.57758790  0.46136135  0.22179945    -0.08200
C449        C  0.58107460  0.49593128  0.20448169     0.05300
C450        C  0.54521083  0.48838846  0.18631170    -0.03200
Br451      Br  0.54900363  0.53000733  0.15763794    -0.02900
H452        H  0.47832839  0.44385981  0.17419758     0.09200
H453        H  0.60481022  0.46624610  0.23568076     0.07300
Br454      Br  0.53612094  0.37613736  0.24739062    -0.03400
C455        C  0.25895838  0.06455624  0.15734741    -0.10000
C456        C  0.28781002  0.06326042  0.13694993     0.06200
C457        C  0.32076708  0.10316808  0.12542121    -0.03800
C458        C  0.32892171  0.14276997  0.13788298    -0.08200
C459        C  0.30396288  0.14389623  0.16138972     0.05300
C460        C  0.26625672  0.10419257  0.16930891    -0.03200
Br461      Br  0.22440706  0.10027834  0.19748924    -0.02900
H462        H  0.23238250  0.03443835  0.16580054     0.09200
H463        H  0.35636414  0.17270648  0.12996455     0.07300
Br464      Br  0.35628274  0.10570234  0.09306728    -0.03400
C465        C  0.53677528  0.08477075  0.39082791    -0.10000
C466        C  0.49963804  0.05422168  0.37480189     0.06200
C467        C  0.50418425  0.02658756  0.35458722    -0.03800
C468        C  0.54422030  0.02781678  0.35228522    -0.08200
C469        C  0.58069024  0.05687248  0.36927596     0.05300
C470        C  0.57710213  0.08628375  0.38819130    -0.03200
Br471      Br  0.62507492  0.12615673  0.41277551    -0.02900
H472        H  0.53400900  0.10631679  0.40640887     0.09200
H473        H  0.54687720  0.00571094  0.33712850     0.07300
Br474      Br  0.45764888  0.98760243  0.32861145    -0.03400
C475        C  0.42087956  0.20368402  0.32293215    -0.10000
C476        C  0.40852150  0.15972043  0.31887496     0.06200
C477        C  0.40620307  0.14397674  0.29015949    -0.03800
C478        C  0.40973592  0.16983625  0.26605088    -0.08200
C479        C  0.41635448  0.21181450  0.27012841     0.05300
C480        C  0.42527425  0.22992079  0.29862355    -0.03200
Br481      Br  0.43945807  0.28907787  0.30510539    -0.02900
H482        H  0.42372535  0.21662243  0.34488981     0.09200
H483        H  0.40296241  0.15556363  0.24425557     0.07300
Br484      Br  0.39503365  0.08617193  0.28272154    -0.03400
C485        C  0.17883070  0.90675256  0.36066614    -0.10000
C486        C  0.21216029  0.90714919  0.37811562     0.06200
C487        C  0.20830348  0.86658165  0.38548637    -0.03800
C488        C  0.17667735  0.82822066  0.37151950    -0.08200
C489        C  0.14708591  0.82855639  0.35062159     0.05300
C490        C  0.14628517  0.86807314  0.34715074    -0.03200
Br491      Br  0.10388220  0.87304057  0.32312685    -0.02900
H492        H  0.18012383  0.93724148  0.35540650     0.09200
H493        H  0.17666323  0.79819880  0.37621601     0.07300
Br494      Br  0.24625418  0.86159582  0.41389551    -0.03400
C495        C  0.35799372  0.97666444  0.27227391    -0.10000
C496        C  0.32312244  0.97419975  0.28834293     0.06200
C497        C  0.28329175  0.96242963  0.27367839    -0.03800
C498        C  0.28042550  0.95819549  0.24340998    -0.08200
C499        C  0.31616066  0.96413296  0.22685256     0.05300
C500        C  0.35473083  0.97145540  0.24165759    -0.03200
Br501      Br  0.40291045  0.97276364  0.22171155    -0.02900
H502        H  0.38841050  0.98446779  0.28332381     0.09200
H503        H  0.24982031  0.95073138  0.23274083     0.07300
Br504      Br  0.23066776  0.95024417  0.29350513    -0.03400
C505        C  0.40383269  0.01511659  0.49586955    -0.10000
C506        C  0.36781732  0.00305888  0.47698615     0.06200
C507        C  0.32517141  0.97765313  0.48782255    -0.03800
C508        C  0.31762896  0.96440913  0.01712488    -0.08200
C509        C  0.35293768  0.97523497  0.03630579     0.05300
C510        C  0.39609456  0.00019009  0.02617060    -0.03200
Br511      Br  0.44587066  0.01340722  0.05068877    -0.02900
H512        H  0.43679538  0.03454131  0.48762868     0.09200
H513        H  0.28431162  0.94571801  0.02491683     0.07300
Br514      Br  0.27401966  0.96319374  0.46437941    -0.03400
C515        C  0.03766565  0.48549656  0.27294622    -0.10000
C516        C  0.06916201  0.48083427  0.28912327     0.06200
C517        C  0.10167400  0.51719443  0.30479238    -0.03800
C518        C  0.10128121  0.55672594  0.30470583    -0.08200
C519        C  0.06885894  0.56103593  0.28917307     0.05300
C520        C  0.03732386  0.52480638  0.27257957    -0.03200
Br521      Br  0.99327448  0.52618091  0.24803364    -0.02900
H522        H  0.01307029  0.45820204  0.26017258     0.12800
H523        H  0.12557229  0.58373143  0.31779878     0.07300
Br524      Br  0.14501705  0.51369403  0.32859829    -0.03400
C525        C  0.15313077  0.25323975  0.25671556    -0.10000
C526        C  0.15156115  0.29009043  0.24645110     0.06200
C527        C  0.18020656  0.31472036  0.22350066    -0.03800
C528        C  0.21124868  0.30448884  0.21346990    -0.08200
C529        C  0.21581169  0.27079160  0.22598055     0.05300
C530        C  0.18501197  0.24366396  0.24690146    -0.03200
Br531      Br  0.18838831  0.19687265  0.26580583    -0.02900
H532        H  0.13163942  0.23352877  0.27405554     0.09200
H533        H  0.23441828  0.32532834  0.19719399     0.07300
Br534      Br  0.18282102  0.36538492  0.20589983    -0.03400
C535        C  0.97179645  0.27114075  0.42897782    -0.10000
C536        C  0.98926721  0.30976011  0.44578173     0.06200
C537        C  0.00520990  0.34999795  0.43088665    -0.03800
C538        C  0.00599600  0.35071542  0.40010307    -0.08200
C539        C  0.99260243  0.31228634  0.38395913     0.05300
C540        C  0.97367339  0.27214098  0.39862711    -0.03200
Br541      Br  0.95050339  0.21726558  0.37842480    -0.02900
H542        H  0.95739637  0.23948014  0.43936931     0.09200
H543        H  0.02049417  0.38179561  0.38890205     0.07300
Br544      Br  0.02919723  0.40538727  0.45051511    -0.03400
C545        C  0.99483356  0.36433808  0.18511204    -0.10000
C546        C  0.02392348  0.35073824  0.19506477     0.06200
C547        C  0.03911801  0.33122514  0.17504430    -0.03800
C548        C  0.02613751  0.32657665  0.14553289    -0.08200
C549        C  0.99638359  0.33927910  0.13575883     0.05300
C550        C  0.98076981  0.35844810  0.15574653    -0.03200
Br551      Br  0.94055222  0.37734370  0.14384673    -0.02900
H552        H  0.98254916  0.37899371  0.20031533     0.09200
H553        H  0.03721081  0.31054970  0.13053641     0.07300
Br554      Br  0.07190700  0.30429887  0.18758810    -0.03400
C555        C  0.92631732  0.16198985  0.31173076    -0.10000
C556        C  0.92602309  0.19347901  0.29304322     0.06200
C557        C  0.88524927  0.18721729  0.28318220    -0.03800
C558        C  0.84663550  0.15495786  0.29590968    -0.08200
C559        C  0.84737318  0.12788184  0.31839195     0.05300
C560        C  0.88760707  0.12931703  0.32439434    -0.03200
Br561      Br  0.89354852  0.09070661  0.35130698    -0.02900
H562        H  0.95724714  0.16527575  0.31890140     0.09200
H563        H  0.81605939  0.15295330  0.28928178     0.07300
Br564      Br  0.88052344  0.22294872  0.25321927    -0.03400
C565        C  0.48151722  0.56187632  0.47536921    -0.10000
C566        C  0.51308243  0.56435859  0.45576317     0.06200
C567        C  0.50369129  0.52714084  0.43896556    -0.03800
C568        C  0.46462590  0.48805786  0.44299587    -0.08200
C569        C  0.43385173  0.48472547  0.46349857     0.05300
C570        C  0.44218495  0.52236505  0.47948025    -0.03200
Br571      Br  0.40334133  0.52066704  0.50915111    -0.02900
H572        H  0.48831837  0.59011594  0.48849162     0.09200
H573        H  0.45843710  0.45975569  0.43014682     0.07300
Br574      Br  0.54249772  0.52767036  0.40954938    -0.03400
C575        C  0.11221605  0.29067040  0.04507849    -0.10000
C576        C  0.07504732  0.26751135  0.02691004     0.06200
C577        C  0.08642737  0.25106865  0.50701680    -0.03800
C578        C  0.12695036  0.25809259  0.49715606    -0.08200
C579        C  0.15894416  0.28384259  0.00883551     0.05300
C580        C  0.15365212  0.29856679  0.03649865    -0.03200
Br581      Br  0.20156557  0.32985734  0.06357615    -0.02900
H582        H  0.10934781  0.30425798  0.06564729     0.09200
H583        H  0.12787368  0.24352518  0.47648717     0.07300
Br584      Br  0.03585592  0.21631570  0.48269152    -0.03400
C585        C  0.19290108  0.38566566  0.40977033    -0.10000
C586        C  0.23226848  0.38694292  0.40373030     0.06200
C587        C  0.24702823  0.39349618  0.37459354    -0.03800
C588        C  0.22036509  0.39396599  0.35169314    -0.08200
C589        C  0.17876412  0.38778757  0.35747440     0.05300
C590        C  0.16623017  0.38604233  0.38691585    -0.03200
Br591      Br  0.11152351  0.38096425  0.39685638    -0.02900
H592        H  0.18109523  0.38067704  0.43208748     0.09200
H593        H  0.23060073  0.39538317  0.32919957     0.07300
Br594      Br  0.30215104  0.39915152  0.36502864    -0.03400
C595        C  0.35508657  0.37747941  0.08254892    -0.10000
C596        C  0.34495272  0.34424861  0.06195986     0.06200
C597        C  0.33799017  0.30345209  0.07162118    -0.03800
C598        C  0.34534711  0.29785175  0.10093329    -0.08200
C599        C  0.35728727  0.33158932  0.12133957     0.05300
C600        C  0.36071877  0.37128230  0.11220179    -0.03200
Br601      Br  0.37486424  0.41875644  0.13871524    -0.02900
H602        H  0.35924984  0.40857989  0.07549130     0.09200
H603        H  0.34052712  0.26649208  0.10800934     0.07300
Br604      Br  0.31370291  0.25285171  0.04673865    -0.03400
C605        C  0.36950145  0.35708644  0.35625927    -0.10000
C606        C  0.35143818  0.31913631  0.37327764     0.06200
C607        C  0.33868573  0.27894862  0.35976654    -0.03800
C608        C  0.33894892  0.27618281  0.32947033    -0.08200
C609        C  0.35244028  0.31326780  0.31178094     0.05300
C610        C  0.36986607  0.35456293  0.32556839    -0.03200
Br611      Br  0.39174612  0.40821149  0.30434191    -0.02900
H612        H  0.38082363  0.38845468  0.36671514     0.09200
H613        H  0.32801778  0.24439930  0.31976493     0.07300
Br614      Br  0.32178799  0.22691256  0.38169051    -0.03400
C615        C  0.26761142  0.16757869  0.44064432    -0.10000
C616        C  0.29943215  0.19778734  0.46019802     0.06200
C617        C  0.33385938  0.19086317  0.46921977    -0.03800
C618        C  0.33850717  0.15755171  0.45635670    -0.08200
C619        C  0.31028791  0.13114957  0.43357991     0.05300
C620        C  0.27311694  0.13521423  0.42679585    -0.03200
Br621      Br  0.23159761  0.10273777  0.39613163    -0.02900
H622        H  0.24095034  0.17229447  0.43337908     0.09200
H623        H  0.36635711  0.15440243  0.46298607     0.07300
Br624      Br  0.37726874  0.22727103  0.49778959    -0.03400
Fe625      Fe  0.35971033  0.34136544  0.96698104     1.65800
Fe626      Fe  0.29431863  0.38265284  0.98626981     1.73200
Fe627      Fe  0.25460016  0.29045148  0.94381217     1.54400
O628        O  0.29561544  0.29644350  0.90976718    -0.82500
O629        O  0.24040428  0.33979840  0.50347590    -0.80800
O630        O  0.36451315  0.34620479  0.92190092    -0.85000
O631        O  0.33486842  0.27459062  0.96376719    -0.79900
O632        O  0.24226055  0.33397496  0.92204495    -0.81600
O633        O  0.32953423  0.37645250  0.52379192    -0.84400
C634        C  0.29780096  0.24006962  0.96337312     0.96400
C635        C  0.33551996  0.32171752  0.90325263     1.03800
O636        O  0.30261263  0.33823124  0.96583980    -1.13400
O637        O  0.35280817  0.43523737  0.97318001    -0.75800
O638        O  0.39698674  0.40828842  0.96898655    -0.79300
O639        O  0.26262384  0.24154926  0.96273053    -0.80000
C640        C  0.39029695  0.44016712  0.96902996     0.95300
O641        O  0.36065254  0.33671441  0.51137426    -0.77900
O642        O  0.26597389  0.39394998  0.94988826    -0.83100
C643        C  0.20265252  0.30071895  0.99495425     0.97900
C644        C  0.24780724  0.37172375  0.92688101     1.03800
O645        O  0.20674634  0.27881930  0.97442199    -0.78800
C646        C  0.34728064  0.35356378  0.53031879     1.02100
Fe647      Fe  0.00410303  0.33628355  0.78913254     1.65800
Fe648      Fe  0.11263023  0.38235541  0.77334577     1.73200
Fe649      Fe  0.06000508  0.28548433  0.80973402     1.54400
O650        O  0.02275020  0.28765612  0.84359744    -0.82500
O651        O  0.13431574  0.34226744  0.75771620    -0.80800
O652        O  0.00082898  0.33589826  0.83441082    -0.85000
O653        O  0.96399563  0.26897704  0.78946166    -0.79900
O654        O  0.11427392  0.32764011  0.83393908    -0.81600
O655        O  0.07838609  0.37310338  0.73381927    -0.84400
C656        C  0.96734554  0.23495148  0.78870616     0.96400
C657        C  0.00503568  0.30966220  0.85151235     1.03800
O658        O  0.05914406  0.33484917  0.79058586    -1.13400
O659        O  0.10301954  0.43287032  0.78586962    -0.75800
O660        O  0.03133309  0.40354414  0.78901053    -0.79300
O661        O  0.00437370  0.23729658  0.78877867    -0.80000
C662        C  0.06942180  0.43640694  0.78853185     0.95300
O663        O  0.00623431  0.33649232  0.74412694    -0.77900
O664        O  0.14849477  0.39288828  0.81205531    -0.83100
C665        C  0.12707118  0.30378956  0.76088963     0.97900
C666        C  0.14398810  0.36750598  0.83323971     1.03800
O667        O  0.09822627  0.27749156  0.77847057    -0.78800
C668        C  0.03786354  0.35334610  0.72618245     1.02100
Fe669      Fe  0.35677180  0.98529557  0.88233858     1.65800
Fe670      Fe  0.40289866  0.09256983  0.90396369     1.73200
Fe671      Fe  0.30700207  0.04336795  0.86424221     1.54400
O672        O  0.31135063  0.01189354  0.82773946    -0.82500
O673        O  0.36132890  0.11210348  0.92076616    -0.80800
O674        O  0.35248921  0.98153462  0.83692785    -0.85000
O675        O  0.28976807  0.94477490  0.88433237    -0.79900
O676        O  0.35041012  0.10127637  0.84405302    -0.81600
O677        O  0.39392230  0.05655953  0.94160068    -0.84400
C678        C  0.25549604  0.94777016  0.88313634     0.96400
C679        C  0.32993539  0.99095848  0.81956509     1.03800
O680        O  0.35556206  0.04042086  0.88359438    -1.13400
O681        O  0.45363232  0.08383061  0.89061256    -0.75800
O682        O  0.42360685  0.01411739  0.87876501    -0.79300
O683        O  0.25728923  0.98439778  0.88046883    -0.80000
C684        C  0.45669959  0.05169104  0.88177194     0.95300
O685        O  0.36014226  0.98600149  0.92754758    -0.77900
O686        O  0.41508445  0.13187872  0.86764655    -0.83100
C687        C  0.32218841  0.10375498  0.91715826     0.97900
C688        C  0.39059574  0.13032143  0.84649799     1.03800
O689        O  0.29678883  0.07585986  0.89840840    -0.78800
C690        C  0.37506125  0.01588574  0.94709483     1.02100
Fe691      Fe  0.36496008  0.33942947  0.71580605     1.65800
Fe692      Fe  0.40972428  0.27854411  0.69283579     1.73200
Fe693      Fe  0.31675064  0.23288130  0.73340327     1.54400
O694        O  0.32398586  0.27024104  0.76998515    -0.82500
O695        O  0.36766363  0.21607906  0.67678708    -0.80800
O696        O  0.37101543  0.34064304  0.76117897    -0.85000
O697        O  0.29836910  0.31302199  0.71987453    -0.79900
O698        O  0.36133254  0.21913006  0.75281412    -0.81600
O699        O  0.39526237  0.30369048  0.65571855    -0.84400
C700        C  0.26420650  0.27586175  0.71939887     0.96400
C701        C  0.34878979  0.30937059  0.77876427     1.03800
O702        O  0.36400684  0.28357698  0.71381552    -1.13400
O703        O  0.46175632  0.33957502  0.70418380    -0.75800
O704        O  0.43120203  0.37979423  0.71221516    -0.79300
O705        O  0.26623211  0.24125328  0.71744269    -0.80000
C706        C  0.46448581  0.37617054  0.70827833     0.95300
O707        O  0.35941246  0.33809983  0.67079443    -0.77900
O708        O  0.42540888  0.25358135  0.72956902    -0.83100
C709        C  0.32849861  0.18576182  0.68049252     0.97900
C710        C  0.40147315  0.23050980  0.75055021     1.03800
O711        O  0.30438558  0.18929383  0.69933986    -0.78800
C712        C  0.37470291  0.32444561  0.65078206     1.02100
Fe713      Fe  0.64890340  0.63650237  0.95615420     1.65800
Fe714      Fe  0.60490871  0.69772496  0.93330119     1.73200
Fe715      Fe  0.69781352  0.74233736  0.97595528     1.54400
O716        O  0.70228413  0.70725518  0.51117356    -0.82500
O717        O  0.64938569  0.75595505  0.91384788    -0.80800
O718        O  0.65194351  0.63759608  0.50170201    -0.85000
O719        O  0.71568407  0.66243869  0.96144038    -0.79900
O720        O  0.66069249  0.75622389  0.49775639    -0.81600
O721        O  0.61141153  0.66456185  0.89772090    -0.84400
C722        C  0.74982658  0.69967023  0.96085658     0.96400
C723        C  0.67733805  0.66801795  0.51917405     1.03800
O724        O  0.65058992  0.69259061  0.95496729    -1.13400
O725        O  0.55333359  0.64091345  0.94996952    -0.75800
O726        O  0.58226642  0.59819650  0.95153280    -0.79300
O727        O  0.74774380  0.73436907  0.95928405    -0.80000
C728        C  0.54946262  0.60348108  0.95156499     0.95300
O729        O  0.65498988  0.63831040  0.91151488    -0.77900
O730        O  0.59469911  0.73110026  0.96691235    -0.83100
C731        C  0.68643026  0.78825970  0.92098213     0.97900
C732        C  0.61667753  0.75044084  0.98985006     1.03800
O733        O  0.70794958  0.78708036  0.94316057    -0.78800
C734        C  0.63437063  0.64679962  0.89190596     1.02100
Fe735      Fe  0.00822682  0.34050004  0.54022926     1.65800
Fe736      Fe  0.90275099  0.28330529  0.56281797     1.73200
Fe737      Fe  0.94844587  0.23277398  0.52575475     1.54400
O738        O  0.94642328  0.25677506  0.98476637    -0.82500
O739        O  0.88286286  0.22309554  0.58154805    -0.80800
O740        O  0.99878668  0.32632870  0.99307137    -0.85000
O741        O  0.04840849  0.31361071  0.53647180    -0.79900
O742        O  0.86804547  0.20633393  0.01813821    -0.81600
O743        O  0.94298663  0.31274806  0.59957387    -0.84400
C744        C  0.04473048  0.27623519  0.53791509     0.96400
C745        C  0.97412887  0.29472779  0.97580287     1.03800
O746        O  0.95302441  0.28538399  0.54327685    -1.13400
O747        O  0.91159007  0.34227571  0.54787089    -0.75800
O748        O  0.98292216  0.38163453  0.54260938    -0.79300
O749        O  0.00794709  0.24222308  0.54125382    -0.80000
C750        C  0.94589159  0.37858348  0.54452916     0.95300
O751        O  0.01339059  0.34153629  0.58538380    -0.77900
O752        O  0.86172219  0.25492575  0.52642881    -0.83100
C753        C  0.89193952  0.19275323  0.58012500     0.97900
C754        C  0.86185153  0.22959484  0.50670563     1.03800
O755        O  0.91901641  0.19355113  0.56172753    -0.78800
C756        C  0.98423314  0.33110880  0.60502568     1.02100
Fe757      Fe  0.65566143  0.99243038  0.87445162     1.65800
Fe758      Fe  0.71803750  0.09775316  0.85218136     1.73200
Fe759      Fe  0.76365565  0.04941352  0.89297471     1.54400
O760        O  0.72668032  0.02172606  0.92983883    -0.82500
O761        O  0.77890964  0.11524788  0.83556109    -0.80800
O762        O  0.65583618  0.99714805  0.91954042    -0.85000
O763        O  0.68049510  0.95099101  0.87795021    -0.79900
O764        O  0.78092534  0.10920851  0.91162832    -0.81600
O765        O  0.69020678  0.05884047  0.81523078    -0.84400
C766        C  0.71714661  0.95282124  0.87813997     0.96400
C767        C  0.68727367  0.00745952  0.93769718     1.03800
O768        O  0.71257381  0.04658664  0.87297324    -1.13400
O769        O  0.65869317  0.09075908  0.86475680    -0.75800
O770        O  0.61671801  0.01994189  0.87156961    -0.79300
O771        O  0.75271786  0.98901539  0.87850792    -0.80000
C772        C  0.62172136  0.05757815  0.86904644     0.95300
O773        O  0.65520177  0.98833461  0.82945095    -0.77900
O774        O  0.74549759  0.13839396  0.88844461    -0.83100
C775        C  0.80872638  0.10541524  0.83875186     0.97900
C776        C  0.76960233  0.13798490  0.90926238     1.03800
O777        O  0.80614106  0.07843332  0.85813411    -0.78800
C778        C  0.66901309  0.01782750  0.80977680     1.02100
Fe779      Fe  0.65695353  0.99135430  0.62453916     1.65800
Fe780      Fe  0.61653098  0.88556934  0.64608084     1.73200
Fe781      Fe  0.70820803  0.93763492  0.60401029     1.54400
O782        O  0.70274376  0.97247173  0.56919535    -0.82500
O783        O  0.66159970  0.86958182  0.66253917    -0.80800
O784        O  0.65141441  0.98961903  0.57936011    -0.85000
O785        O  0.72387218  0.03356608  0.62177743    -0.79900
O786        O  0.66411986  0.88195262  0.58217069    -0.81600
O787        O  0.62690993  0.92321235  0.68346423    -0.84400
C788        C  0.75825414  0.03069068  0.62291341     0.96400
C789        C  0.67665000  0.98579462  0.56153113     1.03800
O790        O  0.66032967  0.93780184  0.62506928    -1.13400
O791        O  0.56238758  0.89052224  0.63401705    -0.75800
O792        O  0.59027273  0.96104602  0.62671419    -0.79300
O793        O  0.75639015  0.99406165  0.62371364    -0.80000
C794        C  0.55774679  0.92322709  0.62967497     0.95300
O795        O  0.66165537  0.99373087  0.66951568    -0.77900
O796        O  0.60403190  0.84579522  0.60950848    -0.83100
C797        C  0.69937180  0.87684599  0.65577899     0.97900
C798        C  0.62583127  0.85017664  0.58643816     1.03800
O799        O  0.72065696  0.90239629  0.63514885    -0.78800
C800        C  0.64681149  0.96413650  0.68907981     1.02100
Fe801      Fe  0.01166633  0.63730488  0.79063965     1.65800
Fe802      Fe  0.11672927  0.69767822  0.81689629     1.73200
Fe803      Fe  0.07018642  0.74645972  0.77754994     1.54400
O804        O  0.04482129  0.71406453  0.73815953    -0.82500
O805        O  0.13629643  0.75886315  0.83479734    -0.80800
O806        O  0.01399284  0.64232636  0.74543337    -0.85000
O807        O  0.97021275  0.66262270  0.79227324    -0.79900
O808        O  0.13101719  0.76506759  0.76085895    -0.81600
O809        O  0.07749310  0.66990559  0.85292948    -0.84400
C810        C  0.97278113  0.69957809  0.79224764     0.96400
C811        C  0.02704481  0.67501995  0.72853313     1.03800
O812        O  0.06604978  0.69371419  0.79522776    -1.13400
O813        O  0.10813559  0.63749519  0.80458998    -0.75800
O814        O  0.04049613  0.59959454  0.78722672    -0.79300
O815        O  0.00921663  0.73467024  0.79059959    -0.80000
C816        C  0.07676734  0.60283534  0.79391858     0.95300
O817        O  0.00831040  0.63015310  0.83574284    -0.77900
O818        O  0.15707157  0.72460944  0.78079844    -0.83100
C819        C  0.12515983  0.78784533  0.83336677     0.97900
C820        C  0.15804469  0.75131052  0.76163380     1.03800
O821        O  0.09685307  0.78505968  0.81476080    -0.78800
C822        C  0.03651290  0.64477386  0.85672166     1.02100
Fe823      Fe  0.35428350  0.98104662  0.63273051     1.65800
Fe824      Fe  0.29560448  0.87836257  0.60532224     1.73200
Fe825      Fe  0.24526314  0.92024109  0.64440794     1.54400
O826        O  0.27430334  0.93465273  0.68507269    -0.82500
O827        O  0.23104049  0.85550716  0.59117036    -0.80800
O828        O  0.34580609  0.98035485  0.67802524    -0.85000
O829        O  0.32949573  0.02219612  0.62688445    -0.79900
O830        O  0.22241528  0.85470252  0.65343169    -0.81600
O831        O  0.31699195  0.91718650  0.56876128    -0.84400
C832        C  0.29421979  0.02074681  0.63377930     0.96400
C833        C  0.31304705  0.95933120  0.69474337     1.03800
O834        O  0.29879555  0.92747260  0.62718260    -1.13400
O835        O  0.35924967  0.89131447  0.61332825    -0.75800
O836        O  0.38912171  0.95028698  0.64085284    -0.79300
O837        O  0.26013659  0.98495614  0.63999792    -0.80000
C838        C  0.39116967  0.91978577  0.62833319     0.95300
O839        O  0.36493631  0.98363595  0.58737925    -0.77900
O840        O  0.27583804  0.84103983  0.64322529    -0.83100
C841        C  0.20601838  0.87174896  0.58908699     0.97900
C842        C  0.24394637  0.83545022  0.65893773     1.03800
O843        O  0.21320991  0.90480672  0.60419412    -0.78800
C844        C  0.34570862  0.95743753  0.56578886     1.02100
Fe845      Fe  0.66206617  0.64390932  0.70462527     1.65800
Fe846      Fe  0.71939276  0.59691487  0.73129115     1.73200
Fe847      Fe  0.77105762  0.69131352  0.69205322     1.54400
O848        O  0.73801359  0.68631185  0.65339544    -0.82500
O849        O  0.77942552  0.63774451  0.75124094    -0.80800
O850        O  0.66648553  0.64158300  0.65968461    -0.85000
O851        O  0.69053295  0.71149198  0.70289281    -0.79900
O852        O  0.78616339  0.64737731  0.67435713    -0.81600
O853        O  0.68857703  0.60759874  0.76609818    -0.84400
C854        C  0.72851670  0.74487590  0.70385333     0.96400
C855        C  0.69949526  0.66237167  0.64326681     1.03800
O856        O  0.71760029  0.64416888  0.70966245    -1.13400
O857        O  0.66066841  0.54665437  0.71575671    -0.75800
O858        O  0.62094020  0.57679884  0.70412684    -0.79300
O859        O  0.76266580  0.74189288  0.70616693    -0.80000
C860        C  0.62472978  0.54344869  0.70798610     0.95300
O861        O  0.65648583  0.64483124  0.74963685    -0.77900
O862        O  0.74890958  0.58313233  0.69698869    -0.83100
C863        C  0.81120764  0.67628830  0.74815067     0.97900
C864        C  0.77413502  0.60728957  0.67693960     1.03800
O865        O  0.81073596  0.70122221  0.72836713    -0.78800
C866        C  0.66682632  0.62714576  0.77030613     1.02100
Fe867      Fe  0.00879773  0.64079794  0.53990876     1.65800
Fe868      Fe  0.90090012  0.59510502  0.52092136     1.73200
Fe869      Fe  0.95317396  0.69047255  0.56043878     1.54400
O870        O  0.98957956  0.68753110  0.59543933    -0.82500
O871        O  0.88243135  0.63739805  0.50312508    -0.80800
O872        O  0.00945343  0.63805845  0.58525372    -0.85000
O873        O  0.04934965  0.70788723  0.54176837    -0.79900
O874        O  0.89863306  0.64730044  0.58283184    -0.81600
O875        O  0.93804246  0.60258660  0.98296877    -0.84400
C876        C  0.04580702  0.74176193  0.54074005     0.96400
C877        C  0.00435736  0.66270101  0.60311375     1.03800
O878        O  0.95398328  0.64204256  0.54018909    -1.13400
O879        O  0.90929420  0.54416248  0.53518776    -0.75800
O880        O  0.98103633  0.57412286  0.53840703    -0.79300
O881        O  0.00878729  0.73934627  0.54096384    -0.80000
C882        C  0.94319899  0.54090378  0.53802496     0.95300
O883        O  0.00948796  0.64251775  0.99526225    -0.77900
O884        O  0.86238921  0.58461141  0.55767170    -0.83100
C885        C  0.88959263  0.67561489  0.50847546     0.97900
C886        C  0.86742693  0.60833232  0.57998461     1.03800
O887        O  0.91610193  0.69915126  0.52849585    -0.78800
C888        C  0.97859073  0.62302351  0.97635847     1.02100
C889        C  0.85627214  0.59702369  0.63294473    -0.10000
C890        C  0.83729917  0.59114302  0.60482268     0.06200
C891        C  0.79294831  0.57929998  0.60204559    -0.03800
C892        C  0.76996331  0.57865268  0.62708785    -0.08200
C893        C  0.79076338  0.58950465  0.65479542     0.05300
C894        C  0.83344370  0.59657320  0.65780887    -0.03200
Br895      Br  0.86416079  0.61276194  0.69478663    -0.02900
H896        H  0.89035361  0.60613946  0.63531847     0.09200
H897        H  0.73739949  0.57410191  0.62450366     0.07300
Br898      Br  0.76470409  0.57069617  0.56443499    -0.03400
C899        C  0.16599059  0.82245980  0.54680534    -0.10000
C900        C  0.16613933  0.84888015  0.56990807     0.06200
C901        C  0.12634600  0.84754173  0.57642091    -0.03800
C902        C  0.08706191  0.81553423  0.56333483    -0.08200
C903        C  0.08649963  0.78481630  0.54362375     0.05300
C904        C  0.12676015  0.79111513  0.53342977    -0.03200
Br905      Br  0.12950564  0.75660131  0.50199274    -0.02900
H906        H  0.19634328  0.82451186  0.54014390     0.09200
H907        H  0.05645171  0.81185874  0.57102735     0.07300
Br908      Br  0.12177964  0.88402367  0.60561935    -0.03400
C909        C  0.24797906  0.82827400  0.71250142    -0.10000
C910        C  0.23158615  0.80768018  0.68523194     0.06200
C911        C  0.19646757  0.76453056  0.68451022    -0.03800
C912        C  0.17590296  0.74402704  0.71065792    -0.08200
C913        C  0.18981669  0.76620065  0.73767453     0.05300
C914        C  0.22721329  0.80796341  0.73861056    -0.03200
Br915      Br  0.24739409  0.84036583  0.77463318    -0.02900
H916        H  0.27471405  0.86172264  0.71332627     0.09200
H917        H  0.14656685  0.71221325  0.70957351     0.07300
Br918      Br  0.17291837  0.73441961  0.64807770    -0.03400
C919        C  0.97807306  0.62564876  0.89299102    -0.10000
C920        C  0.02045634  0.63381380  0.88706115     0.06200
C921        C  0.04711677  0.63412068  0.91051733    -0.03800
C922        C  0.03239379  0.62983455  0.93925255    -0.08200
C923        C  0.99090129  0.62415404  0.94534189     0.05300
C924        C  0.96302001  0.62063891  0.92167367    -0.03200
Br925      Br  0.90519273  0.61208043  0.92637827    -0.02900
H926        H  0.95695475  0.62485590  0.87529018     0.09200
H927        H  0.05365328  0.63091295  0.95697907     0.07300
Br928      Br  0.10300778  0.63827105  0.90501521    -0.03400
C929        C  0.05022382  0.70455285  0.67849136    -0.10000
C930        C  0.02297510  0.66862667  0.69616219     0.06200
C931        C  0.99276274  0.62877515  0.68224138    -0.03800
C932        C  0.98951918  0.62635760  0.65151889    -0.08200
C933        C  0.01526638  0.66312282  0.63433217     0.05300
C934        C  0.04610389  0.70223103  0.64802691    -0.03200
Br935      Br  0.08233387  0.75397224  0.62601320    -0.02900
H936        H  0.07435083  0.73520921  0.68836898     0.09200
H937        H  0.96493490  0.59642514  0.64108131     0.07300
Br938      Br  0.95219199  0.57759479  0.70331388    -0.03400
C939        C  0.93099148  0.73393365  0.77297687    -0.10000
C940        C  0.93137593  0.70112143  0.79015548     0.06200
C941        C  0.89086488  0.66604789  0.79923268    -0.03800
C942        C  0.85166194  0.66121021  0.78767660    -0.08200
C943        C  0.85154483  0.69054235  0.76674154     0.05300
C944        C  0.89187431  0.72905126  0.76115960    -0.03200
Br945      Br  0.89769409  0.77485293  0.73557681    -0.02900
H946        H  0.96162400  0.76178333  0.76631954     0.09200
H947        H  0.82128824  0.63246207  0.79363035     0.07300
Br948      Br  0.88683276  0.62242908  0.82618855    -0.03400
C949        C  0.51195429  0.95642309  0.63800762    -0.10000
C950        C  0.51369191  0.91918966  0.62973036     0.06200
C951        C  0.47408951  0.88082397  0.62241199    -0.03800
C952        C  0.43433349  0.88116795  0.62261432    -0.08200
C953        C  0.43299545  0.91901976  0.63049203     0.05300
C954        C  0.47283306  0.95689398  0.63852815    -0.03200
Br955      Br  0.47868509  0.01223926  0.64922363    -0.02900
H956        H  0.54163365  0.98601661  0.64425859     0.09200
H957        H  0.40446854  0.85183368  0.61632808     0.07300
Br958      Br  0.47207597  0.82775798  0.61074945    -0.03400
C959        C  0.75318687  0.80833855  0.67122046    -0.10000
C960        C  0.73271420  0.78784116  0.69739722     0.06200
C961        C  0.70872138  0.80335461  0.71245491    -0.03800
C962        C  0.70122843  0.83515179  0.69964568    -0.08200
C963        C  0.71745665  0.85221665  0.67169361     0.05300
C964        C  0.74581929  0.84007893  0.65820863    -0.03200
Br965      Br  0.77107516  0.86047134  0.62030045    -0.02900
H966        H  0.77185333  0.79670914  0.65935579     0.09200
H967        H  0.68075311  0.84499799  0.71103475     0.07300
Br968      Br  0.68543945  0.78163347  0.75037334    -0.03400
C969        C  0.69715345  0.02527980  0.75973065    -0.10000
C970        C  0.66196942  0.00409659  0.77891892     0.06200
C971        C  0.62169999  0.96970541  0.76839607    -0.03800
C972        C  0.61752669  0.95676764  0.73906880    -0.08200
C973        C  0.65277290  0.97800553  0.71989499     0.05300
C974        C  0.69299002  0.01248165  0.73045185    -0.03200
Br975      Br  0.74419997  0.04129155  0.70658727    -0.02900
H976        H  0.72850399  0.05134678  0.76776127     0.09200
H977        H  0.58627525  0.93058353  0.73101946     0.07300
Br978      Br  0.57071855  0.94147599  0.79244533    -0.03400
C979        C  0.71483026  0.03270510  0.98783944    -0.10000
C980        C  0.67949479  0.00444144  0.96957738     0.06200
C981        C  0.63964460  0.97358738  0.98250145    -0.03800
C982        C  0.63878612  0.97279565  0.51313686    -0.08200
C983        C  0.67654880  0.99689713  0.53050932     0.05300
C984        C  0.71581526  0.02694311  0.51712313    -0.03200
Br985      Br  0.76851307  0.06276164  0.53917187    -0.02900
H986        H  0.74527658  0.05760971  0.97851860     0.09200
H987        H  0.60843350  0.94941054  0.52335272     0.07300
Br988      Br  0.58904948  0.93323759  0.96003218    -0.03400
C989        C  0.90892592  0.42034533  0.52874765    -0.10000
C990        C  0.94331056  0.41913510  0.54383951     0.06200
C991        C  0.97484049  0.45697044  0.55879259    -0.03800
C992        C  0.97315301  0.49545306  0.55706361    -0.08200
C993        C  0.93990488  0.49749888  0.54113136     0.05300
C994        C  0.90687591  0.45901332  0.52733818    -0.03200
Br995      Br  0.85950079  0.45736670  0.50507490    -0.02900
H996        H  0.88408526  0.39140227  0.51753447     0.09200
H997        H  0.99813812  0.52411291  0.56847698     0.07300
Br998      Br  0.01959064  0.45774847  0.58369388    -0.03400
C999        C  0.84510880  0.23208647  0.95790750    -0.10000
C1000       C  0.82386777  0.21778408  0.98491090     0.06200
C1001       C  0.78063002  0.18271347  0.98518797    -0.03800
C1002       C  0.76121614  0.15932813  0.95927814    -0.08200
C1003       C  0.78437274  0.17087609  0.93287462     0.05300
C1004       C  0.82568103  0.20885059  0.93196711    -0.03200
Br1005     Br  0.85847352  0.22697917  0.89643460    -0.02900
H1006       H  0.87845509  0.25902389  0.95735450     0.09200
H1007       H  0.72931415  0.13013493  0.96021539     0.07300
Br1008     Br  0.76092580  0.16126250  0.52128178    -0.03400
C1009       C  0.86575786  0.11426719  0.59059210    -0.10000
C1010       C  0.86693973  0.15317827  0.59866467     0.06200
C1011       C  0.83889155  0.15127732  0.62127527    -0.03800
C1012       C  0.80569678  0.11068905  0.63113807    -0.08200
C1013       C  0.80102228  0.07154053  0.62006251     0.05300
C1014       C  0.83361443  0.07379788  0.60127602    -0.03200
Br1015     Br  0.83256992  0.02292091  0.58559674    -0.02900
H1016       H  0.88774876  0.11471820  0.57406619     0.09200
H1017       H  0.78206642  0.10969572  0.64652602     0.07300
Br1018     Br  0.84356125  0.20240190  0.63952520    -0.03400
C1019       C  0.62614333  0.65715107  0.83876516    -0.10000
C1020       C  0.63834109  0.63735634  0.86080174     0.06200
C1021       C  0.65511822  0.61024278  0.85236020    -0.03800
C1022       C  0.66372217  0.60754921  0.82293411    -0.08200
C1023       C  0.65393133  0.62940760  0.80091897     0.05300
C1024       C  0.63252828  0.65252116  0.80913437    -0.03200
Br1025     Br  0.60916396  0.67738032  0.78192255    -0.02900
H1026       H  0.61154604  0.67674353  0.84453287     0.09200
H1027       H  0.67789900  0.58753161  0.81732823     0.07300
Br1028     Br  0.66438222  0.57334835  0.87898361    -0.03400
C1029       C  0.72183286  0.67193348  0.56163325    -0.10000
C1030       C  0.68019237  0.65863769  0.55003774     0.06200
C1031       C  0.64422309  0.64312715  0.56876717    -0.03800
C1032       C  0.65094069  0.64352541  0.59908082    -0.08200
C1033       C  0.69323506  0.65917497  0.61103603     0.05300
C1034       C  0.72878638  0.67200414  0.59169635    -0.03200
Br1035     Br  0.78801338  0.69005053  0.60367424    -0.02900
H1036       H  0.74949793  0.68350430  0.54710277     0.09200
H1037       H  0.62314558  0.63298343  0.61332416     0.07300
Br1038     Br  0.58627060  0.62476552  0.55423341    -0.03400
C1039       C  0.67548479  0.83147866  0.88174919    -0.10000
C1040       C  0.70266131  0.82987329  0.90407102     0.06200
C1041       C  0.74085413  0.86954854  0.91210244    -0.03800
C1042       C  0.74768198  0.90937087  0.90068972    -0.08200
C1043       C  0.71725419  0.91099037  0.88133361     0.05300
C1044       C  0.68228640  0.87124620  0.87055100    -0.03200
Br1045     Br  0.64130421  0.86905386  0.84147001    -0.02900
H1046       H  0.64693961  0.80182844  0.87414966     0.09200
H1047       H  0.77511239  0.93943734  0.90890609     0.07300
Br1048     Br  0.78404424  0.87316214  0.93983220    -0.03400
C1049       C  0.59980380  0.75040117  0.54326636    -0.10000
C1050       C  0.60531670  0.76726045  0.51472323     0.06200
C1051       C  0.60660881  0.80714209  0.51011914    -0.03800
C1052       C  0.60776078  0.83195790  0.53424665    -0.08200
C1053       C  0.60737280  0.81731539  0.56296396     0.05300
C1054       C  0.60047435  0.77503771  0.56742074    -0.03200
Br1055     Br  0.59946138  0.75283923  0.60602660    -0.02900
H1056       H  0.59923126  0.71987982  0.54699181     0.09200
H1057       H  0.61316046  0.86459029  0.53065325     0.07300
Br1058     Br  0.62811612  0.84176616  0.96972397    -0.03400
C1059       C  0.83506275  0.66472192  0.96580700    -0.10000
C1060       C  0.86400951  0.69180575  0.49149065     0.06200
C1061       C  0.85806632  0.72651041  0.50136047    -0.03800
C1062       C  0.82667190  0.73418042  0.48770187    -0.08200
C1063       C  0.79246265  0.70177465  0.96608103     0.05300
C1064       C  0.80179920  0.67092592  0.95372226    -0.03200
Br1065     Br  0.76882164  0.63523670  0.92096164    -0.02900
H1066       H  0.84030674  0.63962882  0.95651246     0.09200
H1067       H  0.81997547  0.75823232  0.49711761     0.07300
Br1068     Br  0.88681449  0.76146583  0.53549988    -0.03400
C1069       C  0.51187248  0.44907912  0.68677448    -0.10000
C1070       C  0.50734300  0.41688443  0.70679694     0.06200
C1071       C  0.54285849  0.42527477  0.72534887    -0.03800
C1072       C  0.58136054  0.46608401  0.72453872    -0.08200
C1073       C  0.58539598  0.49912591  0.70529598     0.05300
C1074       C  0.55048677  0.48961440  0.68559448    -0.03200
Br1075     Br  0.55412347  0.52945292  0.65560271    -0.02900
H1076       H  0.48513431  0.44257161  0.67187720     0.09200
H1077       H  0.60761874  0.47254941  0.73987218     0.07300
Br1078     Br  0.53899818  0.38346275  0.75372250    -0.03400
C1079       C  0.26595455  0.06481108  0.65831829    -0.10000
C1080       C  0.29503629  0.06309011  0.63826940     0.06200
C1081       C  0.32947729  0.10309418  0.62777294    -0.03800
C1082       C  0.33796184  0.14270550  0.64049069    -0.08200
C1083       C  0.31199426  0.14413776  0.66320341     0.05300
C1084       C  0.27361996  0.10458438  0.67044651    -0.03200
Br1085     Br  0.23101135  0.10117630  0.69774490    -0.02900
H1086       H  0.23850374  0.03482347  0.66616410     0.09200
H1087       H  0.36617970  0.17250033  0.63316589     0.07300
Br1088     Br  0.36662049  0.10613219  0.59631376    -0.03400
C1089       C  0.53642930  0.08569801  0.89372469    -0.10000
C1090       C  0.50055866  0.05765840  0.87570193     0.06200
C1091       C  0.50679184  0.03349546  0.85357046    -0.03800
C1092       C  0.54716073  0.03545225  0.85119218    -0.08200
C1093       C  0.58214741  0.06158993  0.87021462     0.05300
C1094       C  0.57694300  0.08760809  0.89123800    -0.03200
Br1095     Br  0.62256705  0.12239684  0.91897125    -0.02900
H1096       H  0.53233467  0.10448375  0.91085884     0.09200
H1097       H  0.55109451  0.01579559  0.83461652     0.07300
Br1098     Br  0.46199725  0.99785176  0.82549407    -0.03400
C1099       C  0.41819660  0.20515618  0.82680794    -0.10000
C1100       C  0.40915607  0.16222281  0.82264572     0.06200
C1101       C  0.41160160  0.14809490  0.79426637    -0.03800
C1102       C  0.41566657  0.17401393  0.77002708    -0.08200
C1103       C  0.41908523  0.21479532  0.77390236     0.05300
C1104       C  0.42423082  0.23185041  0.80252170    -0.03200
Br1105     Br  0.43726067  0.29062230  0.80897959    -0.02900
H1106       H  0.41796897  0.21700667  0.84867852     0.09200
H1107       H  0.41232211  0.16072219  0.74814291     0.07300
Br1108     Br  0.40715295  0.09261725  0.78765261    -0.03400
C1109       C  0.18035958  0.90564204  0.86145452    -0.10000
C1110       C  0.21253234  0.90636261  0.88031393     0.06200
C1111       C  0.20731666  0.86592354  0.88954504    -0.03800
C1112       C  0.17622895  0.82712435  0.87561598    -0.08200
C1113       C  0.14851721  0.82720515  0.85307340     0.05300
C1114       C  0.14821151  0.86666825  0.84816863    -0.03200
Br1115     Br  0.10721338  0.87118423  0.82239233    -0.02900
H1116       H  0.18236141  0.93603779  0.85493233     0.09200
H1117       H  0.17523720  0.79700639  0.88160076     0.07300
Br1118     Br  0.24210997  0.86180341  0.92075494    -0.03400
C1119       C  0.35943646  0.97896284  0.77296591    -0.10000
C1120       C  0.32464996  0.97793256  0.78833666     0.06200
C1121       C  0.28565322  0.96748283  0.77292566    -0.03800
C1122       C  0.28310533  0.96129444  0.74275521    -0.08200
C1123       C  0.31852003  0.96473885  0.72696478     0.05300
C1124       C  0.35670743  0.97248358  0.74244841    -0.03200
Br1125     Br  0.40513485  0.97284075  0.72351711    -0.02900
H1126       H  0.38930876  0.98623353  0.78451072     0.09200
H1127       H  0.25307234  0.95438283  0.73148340     0.07300
Br1128     Br  0.23367663  0.95978936  0.79154847    -0.03400
C1129       C  0.40317266  0.01385266  0.99693282    -0.10000
C1130       C  0.36764554  0.00238873  0.97775436     0.06200
C1131       C  0.32465342  0.97810678  0.98811631    -0.03800
C1132       C  0.31910334  0.96348943  0.51680584    -0.08200
C1133       C  0.35491945  0.97453292  0.53563532     0.05300
C1134       C  0.39771216  0.00082262  0.52505448    -0.03200
Br1135     Br  0.44851987  0.01486405  0.54864834    -0.02900
H1136       H  0.43637671  0.03261249  0.98897479     0.09200
H1137       H  0.28600739  0.94394588  0.52481021     0.07300
Br1138     Br  0.27453568  0.96521983  0.96403311    -0.03400
C1139       C  0.06250946  0.49601013  0.76500054    -0.10000
C1140       C  0.07466207  0.48053237  0.78967898     0.06200
C1141       C  0.09159780  0.50748570  0.81466364    -0.03800
C1142       C  0.09488922  0.54870232  0.81497658    -0.08200
C1143       C  0.08098532  0.56345866  0.79071221     0.05300
C1144       C  0.06558283  0.53705826  0.76531946    -0.03200
Br1145     Br  0.04919248  0.55609170  0.73036761    -0.02900
H1146       H  0.05026864  0.47589135  0.74541979     0.12800
H1147       H  0.10613931  0.56827912  0.83483051     0.07300
Br1148     Br  0.10713442  0.48776142  0.84956700    -0.03400
C1149       C  0.15865392  0.25455601  0.75478872    -0.10000
C1150       C  0.15562059  0.29070536  0.74486101     0.06200
C1151       C  0.18433862  0.31670832  0.72229822    -0.03800
C1152       C  0.21653614  0.30811163  0.71209546    -0.08200
C1153       C  0.22182942  0.27436935  0.72385857     0.05300
C1154       C  0.19152193  0.24654494  0.74479674    -0.03200
Br1155     Br  0.19735027  0.20129453  0.76395006    -0.02900
H1156       H  0.13749640  0.23420318  0.77205935     0.09200
H1157       H  0.23955196  0.32984812  0.69607218     0.07300
Br1158     Br  0.18447443  0.36655978  0.70518810    -0.03400
C1159       C  0.97168930  0.26335574  0.92745482    -0.10000
C1160       C  0.97880126  0.29998492  0.94364158     0.06200
C1161       C  0.98957873  0.33893842  0.92860623    -0.03800
C1162       C  0.99480517  0.34082924  0.89802042    -0.08200
C1163       C  0.99051137  0.30467968  0.88227615     0.05300
C1164       C  0.97753871  0.26528478  0.89738555    -0.03200
Br1165     Br  0.96711352  0.21217685  0.87891518    -0.02900
H1166       H  0.96253103  0.23281907  0.93839683     0.09200
H1167       H  0.00459971  0.37130689  0.88681095     0.07300
Br1168     Br  0.99702918  0.39001479  0.94841236    -0.03400
C1169       C  0.00034942  0.36657438  0.68472354    -0.10000
C1170       C  0.02642395  0.34957380  0.69489743     0.06200
C1171       C  0.03784429  0.32610783  0.67556449    -0.03800
C1172       C  0.02513537  0.32200657  0.64607278    -0.08200
C1173       C  0.99898681  0.33893598  0.63583193     0.05300
C1174       C  0.98592664  0.36077312  0.65551774    -0.03200
Br1175     Br  0.94843943  0.38308873  0.64388857    -0.02900
H1176       H  0.99051418  0.38369252  0.69970365     0.09200
H1177       H  0.03384741  0.30364575  0.63138227     0.07300
Br1178     Br  0.06544997  0.29427903  0.68912237    -0.03400
C1179       C  0.92712525  0.16157850  0.81196084    -0.10000
C1180       C  0.92660820  0.19205539  0.79236066     0.06200
C1181       C  0.88571455  0.18588670  0.78299624    -0.03800
C1182       C  0.84739604  0.15486661  0.79674303    -0.08200
C1183       C  0.84842254  0.12876315  0.81982481     0.05300
C1184       C  0.88867125  0.13010294  0.82571496    -0.03200
Br1185     Br  0.89493171  0.09288588  0.85372473    -0.02900
H1186       H  0.95814670  0.16480486  0.81880740     0.09200
H1187       H  0.81680221  0.15290168  0.79022764     0.07300
Br1188     Br  0.88066111  0.22006400  0.75206959    -0.03400
C1189       C  0.47462660  0.56183642  0.97305130    -0.10000
C1190       C  0.50579997  0.56394210  0.95327859     0.06200
C1191       C  0.49626542  0.52648757  0.93677783    -0.03800
C1192       C  0.45807051  0.48709847  0.94195969    -0.08200
C1193       C  0.42795173  0.48403298  0.96294158     0.05300
C1194       C  0.43570842  0.52228041  0.97787398    -0.03200
Br1195     Br  0.39630256  0.52186586  0.00661525    -0.02900
H1196       H  0.48138693  0.59047713  0.98568697     0.09200
H1197       H  0.45191454  0.45849544  0.92948822     0.07300
Br1198     Br  0.53358853  0.52748628  0.90607690    -0.03400
C1199       C  0.12284696  0.29855074  0.54853039    -0.10000
C1200       C  0.08428780  0.27285708  0.53228277     0.06200
C1201       C  0.07976418  0.24948291  0.00043741    -0.03800
C1202       C  0.12118339  0.25758767  0.99184423    -0.08200
C1203       C  0.16622927  0.28676602  0.51198914     0.05300
C1204       C  0.16336194  0.30491822  0.53905056    -0.03200
Br1205     Br  0.21330508  0.33923757  0.56407766    -0.02900
H1206       H  0.12169501  0.31515549  0.56817071     0.09200
H1207       H  0.12418058  0.24590669  0.97053881     0.07300
Br1208     Br  0.03260014  0.21863163  0.97272737    -0.03400
C1209       C  0.18502631  0.37683187  0.91048041    -0.10000
C1210       C  0.22814695  0.38767625  0.90551495     0.06200
C1211       C  0.24609983  0.40157455  0.87753792    -0.03800
C1212       C  0.21915579  0.39969786  0.85409145    -0.08200
C1213       C  0.17440297  0.38351393  0.85846206     0.05300
C1214       C  0.15807086  0.37444240  0.88723988    -0.03200
Br1215     Br  0.09838274  0.35480767  0.89604417    -0.02900
H1216       H  0.17102471  0.36600214  0.93203980     0.09200
H1217       H  0.23228015  0.40710934  0.83212351     0.07300
Br1218     Br  0.30608584  0.41987458  0.87025860    -0.03400
C1219       C  0.36813415  0.38015079  0.58153123    -0.10000
C1220       C  0.35248049  0.34563667  0.56134674     0.06200
C1221       C  0.34247492  0.30379663  0.57105521    -0.03800
C1222       C  0.35110784  0.29782260  0.60010771    -0.08200
C1223       C  0.36759492  0.33253729  0.62017555     0.05300
C1224       C  0.37535296  0.37381668  0.61086886    -0.03200
Br1225     Br  0.39756138  0.42309607  0.63691375    -0.02900
H1226       H  0.37540924  0.41228580  0.57436777     0.09200
H1227       H  0.34341398  0.26557354  0.60732800     0.07300
Br1228     Br  0.31263037  0.25286616  0.54653030    -0.03400
C1229       C  0.36224595  0.35913198  0.85539549    -0.10000
C1230       C  0.34744974  0.32151444  0.87256035     0.06200
C1231       C  0.33760510  0.28203300  0.85908541    -0.03800
C1232       C  0.33975338  0.27978034  0.82883088    -0.08200
C1233       C  0.35151539  0.31644817  0.81100715     0.05300
C1234       C  0.36383689  0.35690059  0.82469948    -0.03200
Br1235     Br  0.37878273  0.40897135  0.80307678    -0.02900
H1236       H  0.37019485  0.38977993  0.86574276     0.09200
H1237       H  0.33156776  0.24859317  0.81920340     0.07300
Br1238     Br  0.32088550  0.22990065  0.88098880    -0.03400
C1239       C  0.26499115  0.16687083  0.93983204    -0.10000
C1240       C  0.29635288  0.19754234  0.95943208     0.06200
C1241       C  0.33091561  0.19108869  0.96900953    -0.03800
C1242       C  0.33554034  0.15719495  0.95714883    -0.08200
C1243       C  0.30766915  0.13011763  0.93451569     0.05300
C1244       C  0.27083639  0.13423823  0.92674508    -0.03200
Br1245     Br  0.23052976  0.10157309  0.89554446    -0.02900
H1246       H  0.23841779  0.17131836  0.93196649     0.09200
H1247       H  0.36334360  0.15427094  0.96426127     0.07300
Br1248     Br  0.37521164  0.22917540  0.99653466    -0.03400
loop_ 
_geom_bond_atom_site_label_1 
_geom_bond_atom_site_label_2 
_geom_bond_distance 
_geom_bond_site_symmetry_2 
_ccdc_geom_bond_type 
Fe1           O7   2.077       .  S
Fe1          O14   2.061       .  S
Fe1           O6   2.055       .  S
Fe1         O641   2.043       .  S
Fe1          O12   1.961       .  S
Fe2          O13   2.070       .  S
Fe2          O18   2.093       .  S
Fe2         O629   2.059       .  S
Fe2         O633   2.092       .  S
Fe2          O12   1.968       .  S
Fe3          O21   2.094       .  S
Fe3           O8   2.056       .  S
Fe3          O15   2.072       .  S
Fe3           O4   2.082       .  S
Fe3          O12   1.956       .  S
O4           C11   1.276       .  A
O5         Fe626   2.068   1_554  S
O5          C643   1.267   1_554  A
O6           C11   1.269       .  A
O7           C10   1.268       .  A
O8           C20   1.270       .  A
O9         Fe626   2.071   1_554  S
O9           C22   1.276       .  A
C10          O15   1.268       .  A
C10         C616   1.489       .  S
C11         C606   1.466       .  S
O13          C16   1.264       .  A
O14          C16   1.264       .  A
C16         C569   1.484       .  S
O17        Fe625   2.057   1_554  S
O17          C22   1.276       .  A
O18          C20   1.276       .  A
C19          O21   1.274       .  A
C19         O629   1.265       .  A
C19        C1203   1.500       .  S
C20         C586   1.475       .  S
C22         C596   1.468       .  S
Fe23         O39   2.063       .  S
Fe23         O29   2.067   1_455  S
Fe23         O36   2.055       .  S
Fe23         O28   2.068   1_455  S
Fe23         O34   1.970       .  S
Fe24         O27   2.061       .  S
Fe24         O31   2.098       .  S
Fe24         O35   2.074       .  S
Fe24         O40   2.096       .  S
Fe24         O34   1.970       .  S
Fe25         O43   2.080       .  S
Fe25         O30   2.058       .  S
Fe25         O37   2.070       .  S
Fe25         O26   2.063       .  S
Fe25         O34   1.968       .  S
O26          C33   1.273       .  A
O27          C41   1.265       .  A
O28          C33   1.273   1_655  A
O29          C32   1.266       .  A
O30          C42   1.269       .  A
O31          C44   1.282       .  A
C32          O37   1.267   1_655  A
C32         C556   1.489       .  S
C33         C539   1.469   1_455  S
O35          C38   1.264       .  A
O36          C38   1.262       .  A
C38         C516   1.485       .  S
O39          C44   1.276       .  A
O40          C42   1.276       .  A
C41          O43   1.270       .  A
C41         C526   1.499       .  S
C42         C589   1.478       .  S
C44         C546   1.477       .  S
Fe45         O61   2.060       .  S
Fe45         O51   2.058       .  S
Fe45         O58   2.057   1_565  S
Fe45         O50   2.069       .  S
Fe45         O56   1.967   1_565  S
Fe46         O49   2.064       .  S
Fe46         O53   2.086       .  S
Fe46         O57   2.067       .  S
Fe46         O62   2.082       .  S
Fe46         O56   1.980       .  S
Fe47         O65   2.082       .  S
Fe47         O52   2.064       .  S
Fe47         O59   2.086   1_545  S
Fe47         O48   2.058       .  S
Fe47         O56   1.966       .  S
O48          C55   1.272   1_545  A
O49          C63   1.268       .  A
O50          C55   1.273       .  A
O51          C54   1.264       .  A
O52          C64   1.271       .  A
O53          C66   1.278       .  A
C54          O59   1.271       .  A
C54         C486   1.495       .  S
C55         C496   1.475       .  S
O57          C60   1.263       .  A
O58          C60   1.262       .  A
C60         C466   1.485       .  S
O61          C66   1.275   1_565  A
O62          C64   1.272       .  A
C63          O65   1.269       .  A
C63         C619   1.502       .  S
C64         C476   1.476       .  S
C66         C506   1.470       .  S
Fe67         O83   2.053       .  S
Fe67         O73   2.063       .  S
Fe67         O80   2.061       .  S
Fe67         O72   2.066       .  S
Fe67         O78   1.959       .  S
Fe68         O71   2.077       .  S
Fe68         O75   2.078       .  S
Fe68         O79   2.074       .  S
Fe68         O84   2.084       .  S
Fe68         O78   1.965       .  S
Fe69         O87   2.066       .  S
Fe69         O74   2.050       .  S
Fe69         O81   2.067       .  S
Fe69         O70   2.060       .  S
Fe69         O78   1.962       .  S
O70          C77   1.275       .  A
O71          C85   1.270       .  A
O72          C77   1.274       .  A
O73          C76   1.265       .  A
O74          C86   1.268       .  A
O75          C88   1.282       .  A
C76          O81   1.264       .  A
C76         C529   1.484       .  S
C77         C609   1.482       .  S
O79          C82   1.263       .  A
O80          C82   1.261       .  A
C82         C446   1.485       .  S
O83          C88   1.276       .  A
O84          C86   1.273       .  A
C85          O87   1.266       .  A
C85         C459   1.500       .  S
C86         C479   1.467       .  S
C88         C599   1.466       .  S
Fe89        O105   2.051       .  S
Fe89         O95   2.064       .  S
Fe89        O102   2.057       .  S
Fe89        O718   2.059       .  S
Fe89        O100   1.951       .  S
Fe90         O93   2.067       .  S
Fe90         O97   2.090       .  S
Fe90        O101   2.074       .  S
Fe90        O106   2.085       .  S
Fe90        O100   1.960       .  S
Fe91        O109   2.080       .  S
Fe91        O103   2.068       .  S
Fe91        O720   2.045       .  S
Fe91        O716   2.064       .  S
Fe91        O100   1.958       .  S
O92        Fe715   2.065   1_554  S
O92          C99   1.274       .  A
O93         C107   1.271       .  A
O94        Fe713   2.057   1_554  S
O94          C99   1.271       .  A
O95          C98   1.266       .  A
O96        Fe715   2.045       .  S
O96         C732   1.267       .  A
O97         C110   1.281       .  A
C98         O103   1.267       .  A
C98         C439   1.480       .  S
C99         C406   1.459       .  S
O101        C104   1.264       .  A
O102        C104   1.263       .  A
C104        C566   1.481       .  S
O105        C110   1.273       .  A
O106        C108   1.272       .  A
C107        O109   1.270       .  A
C107        C416   1.499       .  S
C108        O720   1.267       .  A
C108       C1050   1.466       .  S
C110        C396   1.486       .  S
Fe111       O127   2.095       .  S
Fe111       O117   2.065       .  S
Fe111       O124   2.056   1_455  S
Fe111       O740   2.099   1_454  S
Fe111       O122   1.942   1_455  S
Fe112       O115   2.093       .  S
Fe112       O119   2.065       .  S
Fe112       O123   2.068       .  S
Fe112       O128   2.086       .  S
Fe112       O122   1.956       .  S
Fe113       O131   2.065       .  S
Fe113       O125   2.078       .  S
Fe113       O742   2.071       .  S
Fe113       O738   2.041   1_554  S
Fe113       O122   1.954       .  S
O114       Fe737   2.061       .  S
O114        C121   1.276       .  A
O115        C129   1.275       .  A
O116       Fe735   2.069       .  S
O116        C121   1.275   1_455  A
O117        C120   1.265       .  A
O118       Fe737   2.054       .  S
O118        C754   1.268       .  A
O119        C132   1.279       .  A
C120        O125   1.267   1_455  A
C120        C576   1.494       .  S
C121        C536   1.487       .  S
O123        C126   1.264       .  A
O124        C126   1.262       .  A
C126        C366   1.493       .  S
O127        C132   1.283   1_455  A
O128        C130   1.269       .  A
C129        O131   1.273       .  A
C129        C386   1.490       .  S
C130        O742   1.266       .  A
C130       C1000   1.474   1_554  S
C132        C549   1.473       .  S
Fe133       O149   2.056       .  S
Fe133       O139   2.054       .  S
Fe133       O146   2.048   1_565  S
Fe133       O138   2.067       .  S
Fe133       O144   1.959   1_565  S
Fe134       O137   2.065       .  S
Fe134       O141   2.079       .  S
Fe134       O145   2.068       .  S
Fe134       O150   2.081       .  S
Fe134       O144   1.964       .  S
Fe135       O153   2.080       .  S
Fe135       O140   2.059       .  S
Fe135       O147   2.081   1_545  S
Fe135       O136   2.069       .  S
Fe135       O144   1.963       .  S
O136        C143   1.277       .  A
O137        C151   1.269       .  A
O138        C143   1.274   1_565  A
O139        C142   1.262       .  A
O140        C152   1.269       .  A
O141        C154   1.280       .  A
C142        O147   1.267       .  A
C142        C419   1.490       .  S
C143        C356   1.483       .  S
O145        C148   1.262       .  A
O146        C148   1.259       .  A
C148        C469   1.477       .  S
O149        C154   1.277   1_565  A
O150        C152   1.272       .  A
C151        O153   1.270       .  A
C151        C559   1.500       .  S
C152        C379   1.471       .  S
C154        C346   1.464       .  S
Fe155       O171   2.046       .  S
Fe155       O161   2.070   1_565  S
Fe155       O168   2.049       .  S
Fe155       O160   2.056       .  S
Fe155       O166   1.952       .  S
Fe156       O159   2.058       .  S
Fe156       O163   2.082       .  S
Fe156       O167   2.065       .  S
Fe156       O172   2.081       .  S
Fe156       O166   1.966       .  S
Fe157       O175   2.066       .  S
Fe157       O162   2.043       .  S
Fe157       O169   2.061       .  S
Fe157       O158   2.072       .  S
Fe157       O166   1.956       .  S
O158        C165   1.273       .  A
O159        C173   1.266       .  A
O160        C165   1.270       .  A
O161        C164   1.266       .  A
O162        C174   1.269       .  A
O163        C176   1.281       .  A
C164        O169   1.263   1_545  A
C164        C389   1.482       .  S
C165        C359   1.459       .  S
O167        C170   1.260       .  A
O168        C170   1.262       .  A
C170        C326   1.488       .  S
O171        C176   1.275       .  A
O172        C174   1.274       .  A
C173        O175   1.265       .  A
C173        C339   1.490       .  S
C174        C429   1.468       .  S
C176        C349   1.465       .  S
Fe177       O193   2.065       .  S
Fe177       O183   2.054   1_455  S
Fe177       O190   2.045       .  S
Fe177       O182   2.065       .  S
Fe177       O188   1.964       .  S
Fe178       O181   2.084       .  S
Fe178       O185   2.065       .  S
Fe178       O189   2.078       .  S
Fe178       O194   2.069       .  S
Fe178       O188   1.968       .  S
Fe179       O197   2.074       .  S
Fe179       O184   2.054       .  S
Fe179       O191   2.066       .  S
Fe179       O180   2.064       .  S
Fe179       O188   1.968       .  S
O180        C187   1.275       .  A
O181        C195   1.272       .  A
O182        C187   1.273       .  A
O183        C186   1.262       .  A
O184        C196   1.268       .  A
O185        C198   1.277       .  A
C186        O191   1.265   1_655  A
C186        C316   1.482       .  S
C187        C306   1.479       .  S
O189        C192   1.265       .  A
O190        C192   1.258       .  A
C192        C519   1.493       .  S
O193        C198   1.280       .  A
O194        C196   1.270       .  A
C195        O197   1.268       .  A
C195        C489   1.506       .  S
C196        C289   1.462       .  S
C198        C296   1.477       .  S
Fe199       O215   2.085       .  S
Fe199       O205   2.056   1_565  S
Fe199       O212   2.037       .  S
Fe199       O204   2.084       .  S
Fe199       O210   1.947       .  S
Fe200       O203   2.094       .  S
Fe200       O207   2.049       .  S
Fe200       O211   2.078       .  S
Fe200       O216   2.070       .  S
Fe200       O210   1.958       .  S
Fe201       O219   2.061       .  S
Fe201       O206   2.072       .  S
Fe201       O213   2.074       .  S
Fe201       O202   2.044       .  S
Fe201       O210   1.954       .  S
O202        C209   1.273       .  A
O203        C217   1.275       .  A
O204        C209   1.277       .  A
O205        C208   1.263       .  A
O206        C218   1.269       .  A
O207        C220   1.277       .  A
C208        O213   1.267   1_545  A
C208        C456   1.492       .  S
C209        C499   1.478       .  S
O211        C214   1.265       .  A
O212        C214   1.256       .  A
C214        C329   1.493       .  S
O215        C220   1.281       .  A
O216        C218   1.269       .  A
C217        O219   1.267       .  A
C217        C276   1.493       .  S
C218        C286   1.466       .  S
C220        C509   1.463       .  S
Fe221       O237   2.062       .  S
Fe221       O227   2.083       .  S
Fe221       O234   2.063       .  S
Fe221       O226   2.067       .  S
Fe221       O232   1.955       .  S
Fe222       O225   2.071       .  S
Fe222       O229   2.085       .  S
Fe222       O233   2.073       .  S
Fe222       O238   2.086       .  S
Fe222       O232   1.960       .  S
Fe223       O241   2.059       .  S
Fe223       O228   2.043       .  S
Fe223       O235   2.053       .  S
Fe223       O224   2.061       .  S
Fe223       O232   1.959       .  S
O224        C231   1.269       .  A
O225        C239   1.270       .  A
O226        C231   1.273       .  A
O227        C230   1.269       .  A
O228        C240   1.267       .  A
O229        C242   1.282       .  A
C230        O235   1.264       .  A
C230        C336   1.476       .  S
C231        C409   1.476       .  S
O233        C236   1.264       .  A
O234        C236   1.263       .  A
C236        C449   1.489       .  S
O237        C242   1.277       .  A
O238        C240   1.274       .  A
C239        O241   1.264       .  A
C239        C319   1.496       .  S
C240        C269   1.465       .  S
C242        C399   1.491       .  S
Fe243       O249   2.066       .  S
Fe243       O256   2.044   1_455  S
Fe243       O248   2.060       .  S
Fe243       O883   2.056   1_554  S
Fe243       O254   1.959   1_455  S
Fe244       O247   2.083       .  S
Fe244       O255   2.079       .  S
Fe244       O260   2.084       .  S
Fe244       O875   2.083   1_554  S
Fe244       O254   1.972       .  S
Fe245       O263   2.066       .  S
Fe245       O250   2.043       .  S
Fe245       O257   2.068   1_655  S
Fe245       O246   2.068       .  S
Fe245       O254   1.963       .  S
O246        C253   1.272   1_655  A
O247        C261   1.272       .  A
O248        C253   1.270       .  A
O249        C252   1.266       .  A
O250        C262   1.268       .  A
O251       Fe868   2.080       .  S
O251        C264   1.278       .  A
C252        O257   1.266       .  A
C252        C279   1.484       .  S
C253        C309   1.460       .  S
O255        C258   1.264       .  A
O256        C258   1.261       .  A
C258        C369   1.495       .  S
O259       Fe867   2.057       .  S
O259        C264   1.278   1_455  A
O260        C262   1.274       .  A
C261        O263   1.266       .  A
C261        C436   1.500   1_554  S
C262        C266   1.470       .  S
C264        C299   1.479       .  S
C265        C266   1.405       .  A
C265        C270   1.394       .  A
C265        H272   1.082       .  S
C266        C267   1.407       .  A
C267        C268   1.404       .  A
C267       Br274   1.919       .  S
C268        C269   1.407       .  A
C268        H273   1.082       .  S
C269        C270   1.403       .  A
C270       Br271   1.921       .  S
C275        C276   1.408       .  A
C275        C280   1.400       .  A
C275        H282   1.084       .  S
C276        C277   1.418       .  A
C277        C278   1.404       .  A
C277       Br284   1.921       .  S
C278        C279   1.404       .  A
C278        H283   1.085       .  S
C279        C280   1.409       .  A
C280       Br281   1.920       .  S
C285        C286   1.404       .  A
C285        C290   1.397       .  A
C285        H292   1.083       .  S
C286        C287   1.405       .  A
C287        C288   1.400       .  A
C287       Br294   1.916       .  S
C288        C289   1.404       .  A
C288        H293   1.084       .  S
C289        C290   1.403       .  A
C290       Br291   1.920       .  S
C295        C296   1.404   1_655  A
C295        C300   1.395       .  A
C295        H302   1.083       .  S
C296        C297   1.413       .  A
C297        C298   1.395       .  A
C297       Br304   1.924       .  S
C298        C299   1.405   1_455  A
C298        H303   1.083       .  S
C299        C300   1.414       .  A
C300       Br301   1.920       .  S
C305        C306   1.408       .  A
C305        C310   1.391       .  A
C305        H312   1.083       .  S
C306        C307   1.415   1_455  A
C307        C308   1.401       .  A
C307       Br314   1.920       .  S
C308        C309   1.401   1_655  A
C308        H313   1.083       .  S
C309        C310   1.401       .  A
C310       Br311   1.919       .  S
C315        C316   1.403       .  A
C315        C320   1.402       .  A
C315        H322   1.084       .  S
C316        C317   1.409       .  A
C317        C318   1.399       .  A
C317       Br324   1.920       .  S
C318        C319   1.409       .  A
C318        H323   1.083       .  S
C319        C320   1.422       .  A
C320       Br321   1.925       .  S
C325        C326   1.403       .  A
C325        C330   1.392       .  A
C325        H332   1.082       .  S
C326        C327   1.414       .  A
C327        C328   1.407       .  A
C327       Br334   1.920       .  S
C328        C329   1.411       .  A
C328        H333   1.081       .  S
C329        C330   1.420       .  A
C330       Br331   1.927   1_565  S
C335        C336   1.402       .  A
C335        C340   1.401       .  A
C335        H342   1.085       .  S
C336        C337   1.404       .  A
C337        C338   1.398       .  A
C337       Br344   1.911       .  S
C338        C339   1.409       .  A
C338        H343   1.085       .  S
C339        C340   1.418       .  A
C340       Br341   1.922       .  S
C345        C346   1.401       .  A
C345        C350   1.393       .  A
C345        H352   1.086       .  S
C346        C347   1.408   1_545  A
C347        C348   1.395       .  A
C347       Br354   1.919       .  S
C348        C349   1.401       .  A
C348        H353   1.085       .  S
C349        C350   1.410   1_565  A
C350       Br351   1.923       .  S
C355        C356   1.407       .  A
C355        C984   1.389       .  A
C355        H362   1.084       .  S
C356        C357   1.416   1_545  A
C357        C982   1.405       .  A
C357       Br364   1.919       .  S
C358        C359   1.402       .  A
C358        C981   1.401   1_554  A
C358        H363   1.084       .  S
C359        C360   1.401   1_565  A
C360        C979   1.388   1_554  A
C360       Br361   1.918       .  S
C365        C366   1.410       .  A
C365        C370   1.407       .  A
C365        H372   1.082       .  S
C366        C367   1.415       .  A
C367        C368   1.395       .  A
C367       Br374   1.926   1_655  S
C368        C369   1.408       .  A
C368        H373   1.082   1_655  S
C369        C370   1.414       .  A
C370       Br371   1.920       .  S
C375        C376   1.406       .  A
C375        C380   1.399       .  A
C375        H382   1.084       .  S
C376        C754   1.473       .  S
C376        C377   1.405       .  A
C377        C378   1.403       .  A
C377      Br1008   1.916       .  S
C378        C379   1.407       .  A
C378        H383   1.083       .  S
C379        C380   1.403       .  A
C380       Br381   1.917       .  S
Br384      C1001   1.916   1_554  S
C385        C386   1.406       .  A
C385        C390   1.403       .  A
C385        H392   1.084       .  S
C386        C387   1.415       .  A
C387        C388   1.399       .  A
C387       Br394   1.922       .  S
C388        C389   1.403       .  A
C388        H393   1.084       .  S
C389        C390   1.414       .  A
C390       Br391   1.922       .  S
C395        C396   1.405       .  A
C395        C400   1.397       .  A
C395        H402   1.085       .  S
C396        C397   1.414       .  A
C397        C398   1.396       .  A
C397       Br404   1.921       .  S
C398        C399   1.407       .  A
C398        H403   1.085       .  S
C399        C400   1.417       .  A
C400       Br401   1.919       .  S
C405        C406   1.394       .  A
C405        C410   1.386       .  A
C405        H412   1.085       .  S
C406        C407   1.406       .  A
C407        C408   1.401       .  A
C407       Br414   1.918       .  S
C408        C409   1.408       .  A
C408        H413   1.083       .  S
C409        C410   1.418       .  A
C410       Br411   1.924       .  S
C415        C416   1.407       .  A
C415        C420   1.397       .  A
C415        H422   1.082       .  S
C416        C417   1.418       .  A
C417        C418   1.409       .  A
C417       Br424   1.921       .  S
C418        C419   1.407       .  A
C418        H423   1.082       .  S
C419        C420   1.412       .  A
C420       Br421   1.923       .  S
C425        C426   1.404       .  A
C425        C430   1.399       .  A
C425        H432   1.084       .  S
C426        C732   1.462   1_554  S
C426        C427   1.405       .  A
C427        C428   1.395       .  A
C427      Br1058   1.921   1_554  S
C428        C429   1.406       .  A
C428        H433   1.085       .  S
C429        C430   1.406       .  A
C430       Br431   1.918       .  S
Br434      C1051   1.919       .  S
C435        C440   1.399       .  A
C435       C1060   1.409       .  A
C435        H442   1.079       .  S
C436        C437   1.422   1_556  A
C436       C1059   1.409       .  A
C437        C438   1.404   1_554  A
C437       Br444   1.923       .  S
C438       C1063   1.402       .  A
C438        H443   1.082       .  S
C439        C440   1.407       .  A
C439       C1062   1.403       .  A
C440       Br441   1.916       .  S
C445        C446   1.405       .  A
C445        C450   1.401       .  A
C445        H452   1.083       .  S
C446        C447   1.409       .  A
C447        C448   1.407       .  A
C447       Br454   1.917       .  S
C448        C449   1.408       .  A
C448        H453   1.083       .  S
C449        C450   1.412       .  A
C450       Br451   1.923       .  S
C455        C456   1.406       .  A
C455        C460   1.404       .  A
C455        H462   1.083       .  S
C456        C457   1.412       .  A
C457        C458   1.402       .  A
C457       Br464   1.922       .  S
C458        C459   1.410       .  A
C458        H463   1.083       .  S
C459        C460   1.420       .  A
C460       Br461   1.923       .  S
C465        C466   1.408       .  A
C465        C470   1.404       .  A
C465        H472   1.084       .  S
C466        C467   1.413       .  A
C467        C468   1.397       .  A
C467       Br474   1.922   1_545  S
C468        C469   1.403       .  A
C468        H473   1.085       .  S
C469        C470   1.408       .  A
C470       Br471   1.919       .  S
C475        C476   1.402       .  A
C475        C480   1.404       .  A
C475        H482   1.084       .  S
C476        C477   1.410       .  A
C477        C478   1.395       .  A
C477       Br484   1.910       .  S
C478        C479   1.396       .  A
C478        H483   1.084       .  S
C479        C480   1.411       .  A
C480       Br481   1.916       .  S
C485        C486   1.406       .  A
C485        C490   1.409       .  A
C485        H492   1.083       .  S
C486        C487   1.413       .  A
C487        C488   1.401       .  A
C487       Br494   1.922       .  S
C488        C489   1.409       .  A
C488        H493   1.083       .  S
C489        C490   1.421       .  A
C490       Br491   1.921       .  S
C495        C496   1.406       .  A
C495        C500   1.404       .  A
C495        H502   1.083       .  S
C496        C497   1.410       .  A
C497        C498   1.386       .  A
C497       Br504   1.922       .  S
C498        C499   1.402       .  A
C498        H503   1.084       .  S
C499        C500   1.414       .  A
C500       Br501   1.919       .  S
C505        C506   1.403       .  A
C505       C1134   1.403       .  A
C505        H512   1.085       .  S
C506        C507   1.408   1_545  A
C507       C1132   1.393       .  A
C507       Br514   1.921       .  S
C508        C509   1.400       .  A
C508       C1131   1.390   1_554  A
C508        H513   1.086       .  S
C509        C510   1.409   1_565  A
C510       C1129   1.400   1_554  A
C510       Br511   1.919       .  S
C515        C516   1.403       .  A
C515        C520   1.397       .  A
C515        H522   1.085       .  S
C516        C517   1.410       .  A
C517        C518   1.406       .  A
C517       Br524   1.918       .  S
C518        C519   1.410       .  A
C518        H523   1.084       .  S
C519        C520   1.418       .  A
C520       Br521   1.924   1_455  S
C525        C526   1.411       .  A
C525        C530   1.406       .  A
C525        H532   1.082       .  S
C526        C527   1.421       .  A
C527        C528   1.397       .  A
C527       Br534   1.923       .  S
C528        C529   1.400       .  A
C528        H533   1.083       .  S
C529        C530   1.412       .  A
C530       Br531   1.920       .  S
C535        C536   1.409       .  A
C535        C540   1.386       .  A
C535        H542   1.083       .  S
C536        C537   1.418   1_655  A
C537        C538   1.404       .  A
C537       Br544   1.921       .  S
C538        C539   1.403   1_455  A
C538        H543   1.084       .  S
C539        C540   1.404       .  A
C540       Br541   1.921       .  S
C545        C546   1.405   1_655  A
C545        C550   1.401       .  A
C545        H552   1.083       .  S
C546        C547   1.409       .  A
C547        C548   1.399       .  A
C547       Br554   1.913       .  S
C548        C549   1.401   1_455  A
C548        H553   1.083       .  S
C549        C550   1.409       .  A
C550       Br551   1.919       .  S
C555        C556   1.406       .  A
C555        C560   1.405       .  A
C555        H562   1.084       .  S
C556        C557   1.409       .  A
C557        C558   1.400       .  A
C557       Br564   1.921       .  S
C558        C559   1.411       .  A
C558        H563   1.084       .  S
C559        C560   1.418       .  A
C560       Br561   1.921       .  S
C565        C566   1.406       .  A
C565        C570   1.408       .  A
C565        H572   1.083       .  S
C566        C567   1.412       .  A
C567        C568   1.395       .  A
C567       Br574   1.923       .  S
C568        C569   1.402       .  A
C568        H573   1.084       .  S
C569        C570   1.414       .  A
C570       Br571   1.918       .  S
C575        C576   1.406       .  A
C575        C580   1.406       .  A
C575        H582   1.084       .  S
C576       C1201   1.417       .  A
C577        C578   1.404       .  A
C577       C1200   1.412       .  A
C577       Br584   1.920       .  S
C578       C1203   1.407       .  A
C578        H583   1.084       .  S
C579        C643   1.497   1_554  S
C579        C580   1.416       .  A
C579       C1202   1.406   1_554  A
C580       Br581   1.920       .  S
C585        C586   1.398       .  A
C585        C590   1.400       .  A
C585        H592   1.085       .  S
C586        C587   1.410       .  A
C587        C588   1.402       .  A
C587       Br594   1.910       .  S
C588        C589   1.401       .  A
C588        H593   1.085       .  S
C589        C590   1.411       .  A
C590       Br591   1.908       .  S
C595        C596   1.403       .  A
C595        C600   1.397       .  A
C595        H602   1.084       .  S
C596        C597   1.409       .  A
C597        C598   1.391       .  A
C597       Br604   1.918       .  S
C598        C599   1.400       .  A
C598        H603   1.084       .  S
C599        C600   1.411       .  A
C600       Br601   1.921       .  S
C605        C606   1.402       .  A
C605        C610   1.403       .  A
C605        H612   1.083       .  S
C606        C607   1.401       .  A
C607        C608   1.386       .  A
C607       Br614   1.912       .  S
C608        C609   1.407       .  A
C608        H613   1.083       .  S
C609        C610   1.416       .  A
C610       Br611   1.919       .  S
C615        C616   1.406       .  A
C615        C620   1.406       .  A
C615        H622   1.082       .  S
C616        C617   1.411       .  A
C617        C618   1.400       .  A
C617       Br624   1.920       .  S
C618        C619   1.411       .  A
C618        H623   1.082       .  S
C619        C620   1.420       .  A
C620       Br621   1.921       .  S
Fe625       O631   2.074       .  S
Fe625       O638   2.057       .  S
Fe625       O630   2.065       .  S
Fe625       O636   1.962       .  S
Fe626       O637   2.065       .  S
Fe626       O642   2.066       .  S
Fe626       O636   1.975       .  S
Fe627       O645   2.082       .  S
Fe627       O632   2.050       .  S
Fe627       O639   2.073       .  S
Fe627       O628   2.074       .  S
Fe627       O636   1.959       .  S
O628        C635   1.273       .  A
O630        C635   1.271       .  A
O631        C634   1.267       .  A
O632        C644   1.269       .  A
O633        C646   1.280       .  A
C634        O639   1.268       .  A
C634       C1240   1.491       .  S
C635       C1230   1.468       .  S
O637        C640   1.262       .  A
O638        C640   1.263       .  A
C640       C1193   1.482       .  S
O641        C646   1.273       .  A
O642        C644   1.270       .  A
C643        O645   1.272       .  A
C644       C1210   1.456       .  S
C646       C1220   1.469       .  S
Fe647       O663   2.055       .  S
Fe647       O653   2.075   1_455  S
Fe647       O660   2.074       .  S
Fe647       O652   2.069       .  S
Fe647       O658   1.969       .  S
Fe648       O651   2.052       .  S
Fe648       O655   2.090       .  S
Fe648       O659   2.063       .  S
Fe648       O664   2.081       .  S
Fe648       O658   1.966       .  S
Fe649       O667   2.090       .  S
Fe649       O654   2.051       .  S
Fe649       O661   2.070       .  S
Fe649       O650   2.068       .  S
Fe649       O658   1.965       .  S
O650        C657   1.274       .  A
O651        C665   1.262       .  A
O652        C657   1.274       .  A
O653        C656   1.268       .  A
O654        C666   1.270       .  A
O655        C668   1.282       .  A
C656        O661   1.267   1_655  A
C656       C1180   1.490       .  S
C657       C1163   1.480   1_455  S
O659        C662   1.260       .  A
O660        C662   1.264       .  A
C662       C1140   1.479       .  S
O663        C668   1.276       .  A
O664        C666   1.274       .  A
C665        O667   1.271       .  A
C665       C1150   1.501       .  S
C666       C1213   1.469       .  S
C668       C1170   1.466       .  S
Fe669       O685   2.063       .  S
Fe669       O675   2.066       .  S
Fe669       O682   2.058   1_565  S
Fe669       O674   2.074       .  S
Fe669       O680   1.974   1_565  S
Fe670       O673   2.065       .  S
Fe670       O677   2.067       .  S
Fe670       O681   2.063       .  S
Fe670       O686   2.067       .  S
Fe670       O680   1.985       .  S
Fe671       O689   2.078       .  S
Fe671       O676   2.070       .  S
Fe671       O683   2.085   1_545  S
Fe671       O672   2.055       .  S
Fe671       O680   1.966       .  S
O672        C679   1.270   1_545  A
O673        C687   1.268       .  A
O674        C679   1.273       .  A
O675        C678   1.266       .  A
O676        C688   1.272       .  A
O677        C690   1.274       .  A
C678        O683   1.271       .  A
C678       C1110   1.495       .  S
C679       C1120   1.478       .  S
O681        C684   1.263       .  A
O682        C684   1.263       .  A
C684       C1090   1.484       .  S
O685        C690   1.275   1_565  A
O686        C688   1.269       .  A
C687        O689   1.268       .  A
C687       C1243   1.501       .  S
C688       C1100   1.470       .  S
C690       C1130   1.461       .  S
Fe691       O707   2.058       .  S
Fe691       O697   2.060       .  S
Fe691       O704   2.050       .  S
Fe691       O696   2.076       .  S
Fe691       O702   1.962       .  S
Fe692       O695   2.079       .  S
Fe692       O699   2.084       .  S
Fe692       O703   2.078       .  S
Fe692       O708   2.086       .  S
Fe692       O702   1.970       .  S
Fe693       O711   2.074       .  S
Fe693       O698   2.055       .  S
Fe693       O705   2.071       .  S
Fe693       O694   2.063       .  S
Fe693       O702   1.959       .  S
O694        C701   1.275       .  A
O695        C709   1.270       .  A
O696        C701   1.276       .  A
O697        C700   1.264       .  A
O698        C710   1.270       .  A
O699        C712   1.283       .  A
C700        O705   1.266       .  A
C700       C1153   1.487       .  S
C701       C1233   1.486       .  S
O703        C706   1.264       .  A
O704        C706   1.259       .  A
C706       C1070   1.480       .  S
O707        C712   1.278       .  A
O708        C710   1.274       .  A
C709        O711   1.267       .  A
C709       C1083   1.505       .  S
C710       C1103   1.468       .  S
C712       C1223   1.468       .  S
Fe713       O729   2.047       .  S
Fe713       O719   2.068       .  S
Fe713       O726   2.052       .  S
Fe713       O724   1.957       .  S
Fe714       O717   2.071       .  S
Fe714       O721   2.086       .  S
Fe714       O725   2.074       .  S
Fe714       O730   2.079       .  S
Fe714       O724   1.964       .  S
Fe715       O733   2.076       .  S
Fe715       O727   2.073       .  S
Fe715       O724   1.955       .  S
O716        C723   1.273       .  A
O717        C731   1.272       .  A
O718        C723   1.272       .  A
O719        C722   1.265       .  A
O721        C734   1.280       .  A
C722        O727   1.268       .  A
C722       C1063   1.485       .  S
C723       C1030   1.459       .  S
O725        C728   1.264       .  A
O726        C728   1.262       .  A
C728       C1190   1.478       .  S
O729        C734   1.273       .  A
O730        C732   1.271       .  A
C731        O733   1.270       .  A
C731       C1040   1.502       .  S
C734       C1020   1.483       .  S
Fe735       O751   2.064       .  S
Fe735       O741   2.074       .  S
Fe735       O748   2.057   1_455  S
Fe735       O746   1.956   1_455  S
Fe736       O739   2.067       .  S
Fe736       O743   2.092       .  S
Fe736       O747   2.065       .  S
Fe736       O752   2.085       .  S
Fe736       O746   1.964       .  S
Fe737       O755   2.071       .  S
Fe737       O749   2.069   1_655  S
Fe737       O746   1.958       .  S
O738        C745   1.273       .  A
O739        C753   1.267       .  A
O740        C745   1.281       .  A
O741        C744   1.265       .  A
O743        C756   1.284       .  A
C744        O749   1.264       .  A
C744       C1200   1.485       .  S
C745       C1160   1.479       .  S
O747        C750   1.260       .  A
O748        C750   1.261       .  A
C750        C990   1.483       .  S
O751        C756   1.281   1_455  A
O752        C754   1.273       .  A
C753        O755   1.270       .  A
C753       C1010   1.494       .  S
C756       C1173   1.470       .  S
Fe757       O773   2.057       .  S
Fe757       O763   2.056       .  S
Fe757       O770   2.046   1_565  S
Fe757       O762   2.063       .  S
Fe757       O768   1.966   1_565  S
Fe758       O761   2.070       .  S
Fe758       O765   2.077       .  S
Fe758       O769   2.071       .  S
Fe758       O774   2.078       .  S
Fe758       O768   1.966       .  S
Fe759       O777   2.084       .  S
Fe759       O764   2.068       .  S
Fe759       O771   2.080   1_545  S
Fe759       O760   2.064       .  S
Fe759       O768   1.967       .  S
O760        C767   1.276       .  A
O761        C775   1.270       .  A
O762        C767   1.273   1_565  A
O763        C766   1.262       .  A
O764        C776   1.270       .  A
O765        C778   1.280       .  A
C766        O771   1.268       .  A
C766       C1043   1.489       .  S
C767        C980   1.477       .  S
O769        C772   1.262       .  A
O770        C772   1.258       .  A
C772       C1093   1.474       .  S
O773        C778   1.277   1_565  A
O774        C776   1.271       .  A
C775        O777   1.270       .  A
C775       C1183   1.504       .  S
C776       C1003   1.473       .  S
C778        C970   1.467       .  S
Fe779       O795   2.054       .  S
Fe779       O785   2.074   1_565  S
Fe779       O792   2.044       .  S
Fe779       O784   2.065       .  S
Fe779       O790   1.958       .  S
Fe780       O783   2.069       .  S
Fe780       O787   2.079       .  S
Fe780       O791   2.072       .  S
Fe780       O796   2.080       .  S
Fe780       O790   1.974       .  S
Fe781       O799   2.071       .  S
Fe781       O786   2.049       .  S
Fe781       O793   2.063       .  S
Fe781       O782   2.073       .  S
Fe781       O790   1.957       .  S
O782        C789   1.272       .  A
O783        C797   1.267       .  A
O784        C789   1.270       .  A
O785        C788   1.268       .  A
O786        C798   1.271       .  A
O787        C800   1.279       .  A
C788        O793   1.265   1_545  A
C788       C1013   1.485       .  S
C789        C983   1.468       .  S
O791        C794   1.262       .  A
O792        C794   1.262       .  A
C794        C950   1.489       .  S
O795        C800   1.275       .  A
O796        C798   1.275       .  A
C797        O799   1.266       .  A
C797        C963   1.495       .  S
C798       C1053   1.467       .  S
C800        C973   1.467       .  S
Fe801       O817   2.070       .  S
Fe801       O807   2.065   1_455  S
Fe801       O814   2.050       .  S
Fe801       O806   2.068       .  S
Fe801       O812   1.968       .  S
Fe802       O805   2.081       .  S
Fe802       O809   2.068       .  S
Fe802       O813   2.073       .  S
Fe802       O818   2.084       .  S
Fe802       O812   1.974       .  S
Fe803       O821   2.077       .  S
Fe803       O808   2.061       .  S
Fe803       O815   2.072       .  S
Fe803       O804   2.070       .  S
Fe803       O812   1.970       .  S
O804        C811   1.274       .  A
O805        C819   1.270       .  A
O806        C811   1.272       .  A
O807        C810   1.265       .  A
O808        C820   1.270       .  A
O809        C822   1.277       .  A
C810        O815   1.267   1_655  A
C810        C940   1.491       .  S
C811        C930   1.488       .  S
O813        C816   1.264       .  A
O814        C816   1.260       .  A
C816       C1143   1.481       .  S
O817        C822   1.279       .  A
O818        C820   1.274       .  A
C819        O821   1.268       .  A
C819       C1113   1.505       .  S
C820        C913   1.472       .  S
C822        C920   1.478       .  S
Fe823       O839   2.101       .  S
Fe823       O829   2.055   1_565  S
Fe823       O836   2.039       .  S
Fe823       O828   2.090       .  S
Fe823       O834   1.941       .  S
Fe824       O827   2.093       .  S
Fe824       O831   2.055       .  S
Fe824       O835   2.083       .  S
Fe824       O840   2.078       .  S
Fe824       O834   1.959       .  S
Fe825       O843   2.067       .  S
Fe825       O830   2.082       .  S
Fe825       O837   2.088       .  S
Fe825       O826   2.045       .  S
Fe825       O834   1.951       .  S
O826        C833   1.272       .  A
O827        C841   1.275       .  A
O828        C833   1.277       .  A
O829        C832   1.264       .  A
O830        C842   1.272       .  A
O831        C844   1.278       .  A
C832        O837   1.271   1_545  A
C832       C1080   1.499       .  S
C833       C1123   1.480       .  S
O835        C838   1.265       .  A
O836        C838   1.256       .  A
C838        C953   1.492       .  S
O839        C844   1.283       .  A
O840        C842   1.272       .  A
C841        O843   1.269       .  A
C841        C900   1.494       .  S
C842        C910   1.474       .  S
C844       C1133   1.475       .  S
Fe845       O861   2.067       .  S
Fe845       O851   2.082       .  S
Fe845       O858   2.073       .  S
Fe845       O850   2.063       .  S
Fe845       O856   1.966       .  S
Fe846       O849   2.073       .  S
Fe846       O853   2.075       .  S
Fe846       O857   2.059       .  S
Fe846       O862   2.080       .  S
Fe846       O856   1.967       .  S
Fe847       O865   2.068       .  S
Fe847       O852   2.049       .  S
Fe847       O859   2.061       .  S
Fe847       O848   2.059       .  S
Fe847       O856   1.968       .  S
O848        C855   1.270       .  A
O849        C863   1.269       .  A
O850        C855   1.274       .  A
O851        C854   1.268       .  A
O852        C864   1.267       .  A
O853        C866   1.281       .  A
C854        O859   1.264       .  A
C854        C960   1.481       .  S
C855       C1033   1.480       .  S
O857        C860   1.262       .  A
O858        C860   1.264       .  A
C860       C1073   1.490       .  S
O861        C866   1.277       .  A
O862        C864   1.271       .  A
C863        O865   1.266       .  A
C863        C943   1.500       .  S
C864        C893   1.466       .  S
C866       C1023   1.489       .  S
Fe867       O873   2.072       .  S
Fe867       O880   2.054   1_455  S
Fe867       O872   2.070       .  S
Fe867       O878   1.957   1_455  S
Fe868       O871   2.069       .  S
Fe868       O879   2.070       .  S
Fe868       O884   2.085       .  S
Fe868       O878   1.973       .  S
Fe869       O887   2.068       .  S
Fe869       O874   2.046       .  S
Fe869       O881   2.068   1_655  S
Fe869       O870   2.071       .  S
Fe869       O878   1.962       .  S
O870        C877   1.272   1_655  A
O871        C885   1.269       .  A
O872        C877   1.273       .  A
O873        C876   1.267       .  A
O874        C886   1.269       .  A
O875        C888   1.279       .  A
C876        O881   1.266       .  A
C876        C903   1.486       .  S
C877        C933   1.468       .  S
O879        C882   1.263       .  A
O880        C882   1.263       .  A
C882        C993   1.488       .  S
O883        C888   1.278   1_455  A
O884        C886   1.273       .  A
C885        O887   1.266       .  A
C885       C1060   1.497       .  S
C886        C890   1.472       .  S
C888        C923   1.480       .  S
C889        C890   1.406       .  A
C889        C894   1.395       .  A
C889        H896   1.082       .  S
C890        C891   1.407       .  A
C891        C892   1.403       .  A
C891       Br898   1.919       .  S
C892        C893   1.407       .  A
C892        H897   1.083       .  S
C893        C894   1.403       .  A
C894       Br895   1.919       .  S
C899        C900   1.409       .  A
C899        C904   1.401       .  A
C899        H906   1.084       .  S
C900        C901   1.417       .  A
C901        C902   1.404       .  A
C901       Br908   1.920       .  S
C902        C903   1.405       .  A
C902        H907   1.085       .  S
C903        C904   1.409       .  A
C904       Br905   1.920       .  S
C909        C910   1.406       .  A
C909        C914   1.401       .  A
C909        H916   1.084       .  S
C910        C911   1.405       .  A
C911        C912   1.403       .  A
C911       Br918   1.916       .  S
C912        C913   1.406       .  A
C912        H917   1.084       .  S
C913        C914   1.406       .  A
C914       Br915   1.919       .  S
C919        C920   1.404   1_655  A
C919        C924   1.396       .  A
C919        H926   1.082       .  S
C920        C921   1.412       .  A
C921        C922   1.396       .  A
C921       Br928   1.923       .  S
C922        C923   1.406   1_455  A
C922        H927   1.083       .  S
C923        C924   1.414       .  A
C924       Br925   1.922       .  S
C929        C930   1.408       .  A
C929        C934   1.393       .  A
C929        H936   1.083       .  S
C930        C931   1.418   1_455  A
C931        C932   1.404       .  A
C931       Br938   1.921       .  S
C932        C933   1.402   1_655  A
C932        H937   1.083       .  S
C933        C934   1.403       .  A
C934       Br935   1.918       .  S
C939        C940   1.405       .  A
C939        C944   1.403       .  A
C939        H946   1.083       .  S
C940        C941   1.412       .  A
C941        C942   1.402       .  A
C941       Br948   1.921       .  S
C942        C943   1.410       .  A
C942        H947   1.083       .  S
C943        C944   1.420       .  A
C944       Br945   1.922       .  S
C949        C950   1.402       .  A
C949        C954   1.390       .  A
C949        H956   1.082       .  S
C950        C951   1.414       .  A
C951        C952   1.409       .  A
C951       Br958   1.920       .  S
C952        C953   1.411       .  A
C952        H957   1.081       .  S
C953        C954   1.418       .  A
C954       Br955   1.927   1_565  S
C959        C960   1.403       .  A
C959        C964   1.402       .  A
C959        H966   1.085       .  S
C960        C961   1.404       .  A
C961        C962   1.403       .  A
C961       Br968   1.912       .  S
C962        C963   1.410       .  A
C962        H967   1.085       .  S
C963        C964   1.419       .  A
C964       Br965   1.922       .  S
C969        C970   1.402       .  A
C969        C974   1.393       .  A
C969        H976   1.086       .  S
C970        C971   1.409   1_545  A
C971        C972   1.397       .  A
C971       Br978   1.920       .  S
C972        C973   1.403       .  A
C972        H977   1.085       .  S
C973        C974   1.410   1_565  A
C974       Br975   1.922       .  S
C979        C980   1.406       .  A
C979        H986   1.084       .  S
C980        C981   1.414   1_545  A
C981       Br988   1.920       .  S
C982        C983   1.403       .  A
C982        H987   1.084       .  S
C983        C984   1.403   1_565  A
C984       Br985   1.917       .  S
C989        C990   1.406       .  A
C989        C994   1.407       .  A
C989        H996   1.082       .  S
C990        C991   1.411       .  A
C991        C992   1.395       .  A
C991       Br998   1.922   1_655  S
C992        C993   1.404       .  A
C992        H997   1.083       .  S
C993        C994   1.416       .  A
C994       Br995   1.920       .  S
C999       C1000   1.406       .  A
C999       C1004   1.402       .  A
C999       H1006   1.083       .  S
C1000      C1001   1.405       .  A
C1001      C1002   1.402       .  A
C1002      C1003   1.405       .  A
C1002      H1007   1.084       .  S
C1003      C1004   1.405       .  A
C1004     Br1005   1.918       .  S
C1009      C1010   1.406       .  A
C1009      C1014   1.401       .  A
C1009      H1016   1.083       .  S
C1010      C1011   1.417       .  A
C1011      C1012   1.402       .  A
C1011     Br1018   1.923       .  S
C1012      C1013   1.405       .  A
C1012      H1017   1.084       .  S
C1013      C1014   1.413       .  A
C1014     Br1015   1.922       .  S
C1019      C1020   1.405       .  A
C1019      C1024   1.396       .  A
C1019      H1026   1.085       .  S
C1020      C1021   1.413       .  A
C1021      C1022   1.394       .  A
C1021     Br1028   1.922       .  S
C1022      C1023   1.407       .  A
C1022      H1027   1.085       .  S
C1023      C1024   1.417       .  A
C1024     Br1025   1.920       .  S
C1029      C1030   1.396       .  A
C1029      C1034   1.389       .  A
C1029      H1036   1.084       .  S
C1030      C1031   1.404       .  A
C1031      C1032   1.398       .  A
C1031     Br1038   1.919       .  S
C1032      C1033   1.409       .  A
C1032      H1037   1.083       .  S
C1033      C1034   1.420       .  A
C1034     Br1035   1.926       .  S
C1039      C1040   1.410       .  A
C1039      C1044   1.400       .  A
C1039      H1046   1.082       .  S
C1040      C1041   1.421       .  A
C1041      C1042   1.406       .  A
C1041     Br1048   1.922       .  S
C1042      C1043   1.404       .  A
C1042      H1047   1.082       .  S
C1043      C1044   1.412       .  A
C1044     Br1045   1.922       .  S
C1049      C1050   1.406       .  A
C1049      C1054   1.399       .  A
C1049      H1056   1.083       .  S
C1050      C1051   1.405       .  A
C1051      C1052   1.397       .  A
C1052      C1053   1.405       .  A
C1052      H1057   1.085       .  S
C1053      C1054   1.405       .  A
C1054     Br1055   1.920       .  S
C1059      C1064   1.404       .  A
C1059      H1066   1.082       .  S
C1060      C1061   1.421       .  A
C1061      C1062   1.404       .  A
C1061     Br1068   1.922       .  S
C1062      H1067   1.082       .  S
C1063      C1064   1.409       .  A
C1064     Br1065   1.917       .  S
C1069      C1070   1.405       .  A
C1069      C1074   1.401       .  A
C1069      H1076   1.082       .  S
C1070      C1071   1.406       .  A
C1071      C1072   1.404       .  A
C1071     Br1078   1.918       .  S
C1072      C1073   1.411       .  A
C1072      H1077   1.082       .  S
C1073      C1074   1.413       .  A
C1074     Br1075   1.921       .  S
C1079      C1080   1.407       .  A
C1079      C1084   1.407       .  A
C1079      H1086   1.083       .  S
C1080      C1081   1.415       .  A
C1081      C1082   1.404       .  A
C1081     Br1088   1.923       .  S
C1082      C1083   1.410       .  A
C1082      H1087   1.083       .  S
C1083      C1084   1.420       .  A
C1084     Br1085   1.922       .  S
C1089      C1090   1.408       .  A
C1089      C1094   1.403       .  A
C1089      H1096   1.084       .  S
C1090      C1091   1.413       .  A
C1091      C1092   1.397       .  A
C1091     Br1098   1.921   1_545  S
C1092      C1093   1.402       .  A
C1092      H1097   1.085       .  S
C1093      C1094   1.407       .  A
C1094     Br1095   1.918       .  S
C1099      C1100   1.400       .  A
C1099      C1104   1.402       .  A
C1099      H1106   1.085       .  S
C1100      C1101   1.408       .  A
C1101      C1102   1.397       .  A
C1101     Br1108   1.914       .  S
C1102      C1103   1.398       .  A
C1102      H1107   1.084       .  S
C1103      C1104   1.410       .  A
C1104     Br1105   1.915       .  S
C1109      C1110   1.405       .  A
C1109      C1114   1.406       .  A
C1109      H1116   1.083       .  S
C1110      C1111   1.413       .  A
C1111      C1112   1.404       .  A
C1111     Br1118   1.920       .  S
C1112      C1113   1.410       .  A
C1112      H1117   1.083       .  S
C1113      C1114   1.419       .  A
C1114     Br1115   1.920       .  S
C1119      C1120   1.406       .  A
C1119      C1124   1.405       .  A
C1119      H1126   1.081       .  S
C1120      C1121   1.411       .  A
C1121      C1122   1.388       .  A
C1121     Br1128   1.924       .  S
C1122      C1123   1.402       .  A
C1122      H1127   1.084       .  S
C1123      C1124   1.413       .  A
C1124     Br1125   1.919       .  S
C1129      C1130   1.402       .  A
C1129      H1136   1.085       .  S
C1130      C1131   1.406   1_545  A
C1131     Br1138   1.920       .  S
C1132      C1133   1.402       .  A
C1132      H1137   1.085       .  S
C1133      C1134   1.411   1_565  A
C1134     Br1135   1.918       .  S
C1139      C1140   1.404       .  A
C1139      C1144   1.402       .  A
C1139      H1146   1.084       .  S
C1140      C1141   1.408       .  A
C1141      C1142   1.404       .  A
C1141     Br1148   1.917       .  S
C1142      C1143   1.406       .  A
C1142      H1147   1.084       .  S
C1143      C1144   1.411       .  A
C1144     Br1145   1.921       .  S
C1149      C1150   1.409       .  A
C1149      C1154   1.406       .  A
C1149      H1156   1.082       .  S
C1150      C1151   1.422       .  A
C1151      C1152   1.400       .  A
C1151     Br1158   1.925       .  S
C1152      C1153   1.402       .  A
C1152      H1157   1.083       .  S
C1153      C1154   1.412       .  A
C1154     Br1155   1.921       .  S
C1159      C1160   1.401       .  A
C1159      C1164   1.386       .  A
C1159      H1166   1.083       .  S
C1160      C1161   1.412       .  A
C1161      C1162   1.407       .  A
C1161     Br1168   1.918       .  S
C1162      C1163   1.408       .  A
C1162      H1167   1.083   1_655  S
C1163      C1164   1.412       .  A
C1164     Br1165   1.920       .  S
C1169      C1170   1.402       .  A
C1169      C1174   1.398   1_455  A
C1169      H1176   1.083   1_455  S
C1170      C1171   1.406       .  A
C1171      C1172   1.397       .  A
C1171     Br1178   1.918       .  S
C1172      C1173   1.403   1_455  A
C1172      H1177   1.083       .  S
C1173      C1174   1.409       .  A
C1174     Br1175   1.918       .  S
C1179      C1180   1.406       .  A
C1179      C1184   1.408       .  A
C1179      H1186   1.084       .  S
C1180      C1181   1.408       .  A
C1181      C1182   1.400       .  A
C1181     Br1188   1.920       .  S
C1182      C1183   1.411       .  A
C1182      H1187   1.084       .  S
C1183      C1184   1.419       .  A
C1184     Br1185   1.921       .  S
C1189      C1190   1.405       .  A
C1189      C1194   1.406       .  A
C1189      H1196   1.083       .  S
C1190      C1191   1.410       .  A
C1191      C1192   1.394       .  A
C1191     Br1198   1.923       .  S
C1192      C1193   1.403       .  A
C1192      H1197   1.084       .  S
C1193      C1194   1.414       .  A
C1194     Br1195   1.918   1_556  S
C1199      C1200   1.402       .  A
C1199      C1204   1.406       .  A
C1199      H1206   1.085       .  S
C1201      C1202   1.403   1_554  A
C1201     Br1208   1.921   1_554  S
C1202      H1207   1.084       .  S
C1203      C1204   1.421       .  A
C1204     Br1205   1.922       .  S
C1209      C1210   1.392       .  A
C1209      C1214   1.389       .  A
C1209      H1216   1.086       .  S
C1210      C1211   1.406       .  A
C1211      C1212   1.401       .  A
C1211     Br1218   1.912       .  S
C1212      C1213   1.402       .  A
C1212      H1217   1.085       .  S
C1213      C1214   1.411       .  A
C1214     Br1215   1.907       .  S
C1219      C1220   1.400       .  A
C1219      C1224   1.397       .  A
C1219      H1226   1.084       .  S
C1220      C1221   1.411       .  A
C1221      C1222   1.395       .  A
C1221     Br1228   1.920       .  S
C1222      C1223   1.401       .  A
C1222      H1227   1.084       .  S
C1223      C1224   1.411       .  A
C1224     Br1225   1.919       .  S
C1229      C1230   1.403       .  A
C1229      C1234   1.406       .  A
C1229      H1236   1.083       .  S
C1230      C1231   1.401       .  A
C1231      C1232   1.388       .  A
C1231     Br1238   1.915       .  S
C1232      C1233   1.408       .  A
C1232      H1237   1.084       .  S
C1233      C1234   1.415       .  A
C1234     Br1235   1.918       .  S
C1239      C1240   1.407       .  A
C1239      C1244   1.406       .  A
C1239      H1246   1.082       .  S
C1240      C1241   1.412       .  A
C1241      C1242   1.400       .  A
C1241     Br1248   1.919       .  S
C1242      C1243   1.409       .  A
C1242      H1247   1.082       .  S
C1243      C1244   1.419       .  A
C1244     Br1245   1.922       .  S
