geometry optimzed in LAMMPS
_audit_creation_date              2020-11-30 
_audit_creation_method            'lammps2cif' 
_symmetry_space_group_name_H-M    'P1' 
_symmetry_Int_Tables_number       1 
_symmetry_cell_setting            triclinic 
loop_ 
_symmetry_equiv_pos_as_xyz 
  x,y,z 
_cell_length_a                    56.22530804 
_cell_length_b                    56.280986654588716 
_cell_length_c                    58.94788681018129 
_cell_angle_alpha                 89.30897627395328 
_cell_angle_beta                  90.73104834867912 
_cell_angle_gamma                 121.93272340538289 
loop_ 
_atom_site_label 
_atom_site_type_symbol 
_atom_site_fract_x 
_atom_site_fract_y 
_atom_site_fract_z 
_atom_site_charge 
O1          O  0.35502385  0.53360852  0.57296049    -0.85000
O2          O  0.30162698  0.48763487  0.57243183    -0.82000
C3          C  0.27908199  0.46624973  0.57887350     0.98500
O4          O  0.27528450  0.45955473  0.59977601    -0.82000
O5          O  0.31595179  0.44778105  0.61411588    -0.84700
C6          C  0.34021576  0.45260148  0.61847298     1.03000
O7          O  0.35969535  0.47687986  0.62433817    -0.77500
O8          O  0.37362315  0.51028975  0.58590605    -0.77600
C9          C  0.37009026  0.52344900  0.57008762     1.03000
O10         O  0.34053092  0.55460305  0.61092118    -0.85000
O11         O  0.28609123  0.51175221  0.60710747    -0.82000
C12         C  0.27957395  0.50704858  0.62779906     0.98500
O13         O  0.28756013  0.49372798  0.63977672    -0.82100
O14         O  0.32447759  0.47853561  0.65561948    -0.84700
C15         C  0.34513949  0.50121367  0.66326878     1.03000
O16         O  0.36131158  0.52063824  0.64999672    -0.77500
O17         O  0.37990946  0.55549961  0.61334319    -0.77600
C18         C  0.36638669  0.56757054  0.61516126     1.02900
Cr19       Cr  0.32154988  0.52047098  0.59236591     1.93700
Cr20       Cr  0.30286126  0.47204844  0.62618645     1.93200
Cr21       Cr  0.36581464  0.51470680  0.61791934     1.39100
O22         O  0.33004970  0.50219237  0.61207195    -1.22700
O23         O  0.17241975  0.65974372  0.56939034    -0.85000
O24         O  0.20135043  0.71420861  0.58443542    -0.82000
C25         C  0.18186774  0.71845990  0.58021054     0.98500
O26         O  0.16089582  0.70792112  0.59308326    -0.82000
O27         O  0.12009443  0.67161424  0.62326647    -0.84700
C28         C  0.10367044  0.64939300  0.61243084     1.03000
O29         O  0.11170178  0.63349908  0.60613944    -0.77500
O30         O  0.14649913  0.61955176  0.58732278    -0.77600
C31         C  0.15520136  0.63368287  0.56902647     1.03000
O32         O  0.20004852  0.64532880  0.60222708    -0.85000
O33         O  0.22238503  0.69733279  0.62133822    -0.82000
C34         C  0.22476343  0.71912926  0.62942480     0.98500
O35         O  0.20439515  0.72296521  0.62810906    -0.82100
O36         O  0.16336192  0.68281330  0.65618711    -0.84700
C37         C  0.14812903  0.65820149  0.66391557     1.03000
O38         O  0.13555209  0.63741584  0.65068688    -0.77500
O39         O  0.17291803  0.62568494  0.63149518    -0.77600
C40         C  0.19290445  0.62940750  0.61931701     1.02900
Cr41       Cr  0.19674220  0.67832429  0.59578015     1.93700
Cr42       Cr  0.16255891  0.69437061  0.62432292     1.93200
Cr43       Cr  0.14352691  0.63192799  0.61862811     1.39100
O44         O  0.16747506  0.66804880  0.61321534    -1.22700
O45         O  0.45531201  0.83571398  0.58641652    -0.85000
O46         O  0.49162948  0.82273259  0.56877601    -0.82000
C47         C  0.51250398  0.82038800  0.56661447     0.98500
O48         O  0.52760694  0.82290669  0.58370018    -0.82000
O49         O  0.55059041  0.87713841  0.60013566    -0.84700
C50         C  0.55224724  0.89778083  0.60988820     1.03000
O51         O  0.53461321  0.89396933  0.62485348    -0.77500
O52         O  0.48889909  0.87771288  0.59676092    -0.77600
C53         C  0.46873833  0.86205085  0.58371775     1.03000
O54         O  0.44541808  0.79801100  0.62377887    -0.85000
O55         O  0.47827821  0.78215507  0.60415461    -0.82000
C56         C  0.49218013  0.78038049  0.62041929     0.98500
O57         O  0.51243544  0.80203800  0.62927278    -0.82100
O58         O  0.53900565  0.85523107  0.64643655    -0.84700
C59         C  0.52221895  0.85314750  0.66169658     1.03000
O60         O  0.49932759  0.85104900  0.65635522    -0.77500
O61         O  0.45199368  0.83903084  0.63100893    -0.77600
C62         C  0.43691259  0.81256888  0.63218074     1.02900
Cr63       Cr  0.46977148  0.81162123  0.59695439     1.93700
Cr64       Cr  0.53019815  0.83944561  0.61466255     1.93200
Cr65       Cr  0.49398111  0.86357151  0.62631488     1.39100
O66         O  0.49799512  0.83807153  0.61267074    -1.22700
O67         O  0.16133976  0.52429014  0.43397320    -0.85000
O68         O  0.17009013  0.48049104  0.43834628    -0.82000
C69         C  0.17230479  0.46006236  0.43319800     0.98500
O70         O  0.17131659  0.45338991  0.41253451    -0.82000
O71         O  0.11881605  0.43811702  0.39501880    -0.84700
C72         C  0.09892723  0.44094315  0.38863153     1.03000
O73         O  0.10398966  0.46414040  0.38063262    -0.77500
O74         O  0.11972147  0.49700715  0.41884667    -0.77600
C75         C  0.13496286  0.51258603  0.43470836     1.03000
O76         O  0.20177314  0.54693018  0.39830050    -0.85000
O77         O  0.21410167  0.50629508  0.40575420    -0.82000
C78         C  0.21745905  0.50089055  0.38570334     0.98500
O79         O  0.19669563  0.48767401  0.37256859    -0.82100
O80         O  0.14508942  0.46901228  0.35325930    -0.84700
C81         C  0.14833912  0.49127968  0.34449295     1.03000
O82         O  0.14958335  0.50998774  0.35680411    -0.77500
O83         O  0.16194619  0.54455039  0.39283808    -0.77600
C84         C  0.18850939  0.55840248  0.39255539     1.02900
Cr85       Cr  0.18483589  0.51299324  0.41757127     1.93700
Cr86       Cr  0.15789989  0.46399926  0.38428867     1.93200
Cr87       Cr  0.13549838  0.50306565  0.38797198     1.39100
O88         O  0.15933054  0.49321860  0.39665788    -1.22700
O89         O  0.33556827  0.83192975  0.43797051    -0.85000
O90         O  0.28101894  0.79706671  0.42507181    -0.82000
C91         C  0.27416455  0.81476837  0.42838638     0.98500
O92         O  0.28221447  0.83494127  0.41468314    -0.82000
O93         O  0.31388851  0.87522269  0.38191433    -0.84700
C94         C  0.33595876  0.89392564  0.39192737     1.03000
O95         O  0.35383205  0.88866861  0.39909617    -0.77500
O96         O  0.37441205  0.85941977  0.41915500    -0.77600
C97         C  0.36093359  0.85132518  0.43770444     1.03000
O98         O  0.35328396  0.80601709  0.40645542    -0.85000
O99         O  0.29935565  0.77726837  0.38914714    -0.82000
C100        C  0.27585808  0.77175251  0.38167308     0.98500
O101        O  0.26935661  0.79028452  0.38211036    -0.82100
O102        O  0.30488516  0.83109965  0.35197885    -0.84700
C103        C  0.32814007  0.84807159  0.34293934     1.03000
O104        O  0.34975831  0.86364055  0.35504809    -0.77500
O105        O  0.36779108  0.83160020  0.37572090    -0.77600
C106        C  0.36754678  0.81337585  0.38846198     1.02900
Cr107      Cr  0.31789086  0.80513954  0.41319837     1.93700
Cr108      Cr  0.29469611  0.83288792  0.38350881     1.93200
Cr109      Cr  0.35878446  0.85883134  0.38764864     1.39100
O110        O  0.32389968  0.83235745  0.39442863    -1.22700
O111        O  0.46279624  0.62924416  0.42902216    -0.85000
O112        O  0.50312401  0.68522947  0.43536087    -0.82000
C113        C  0.52218220  0.71028770  0.43131706     0.98500
O114        O  0.52955255  0.71865737  0.41102829    -0.82000
O115        O  0.55072664  0.68900229  0.39053066    -0.84700
C116        C  0.55011693  0.66711610  0.38472101     1.03000
O117        O  0.52770316  0.64596916  0.37746159    -0.77500
O118        O  0.49347285  0.62160225  0.41407798    -0.77600
C119        C  0.47677049  0.61756226  0.42978654     1.03000
O120        O  0.43864025  0.64541266  0.39369179    -0.85000
O121        O  0.47485310  0.70052502  0.40416525    -0.82000
C122        C  0.47911475  0.71144773  0.38468198     0.98500
O123        O  0.49484965  0.70895347  0.37106553    -0.82100
O124        O  0.51896486  0.68273038  0.34995020    -0.84700
C125        C  0.49936245  0.66106023  0.34021318     1.03000
O126        O  0.48132733  0.64037347  0.35166394    -0.77500
O127        O  0.44545589  0.61129086  0.38681004    -0.77600
C128        C  0.42939256  0.62073839  0.38735632     1.02900
Cr129      Cr  0.47166615  0.66503621  0.41388656     1.93700
Cr130      Cr  0.52144420  0.69732735  0.38155048     1.93200
Cr131      Cr  0.48754800  0.63244970  0.38323455     1.39100
O132        O  0.49382067  0.66503783  0.39286969    -1.22700
O133        O  0.61256719  0.50453013  0.41423882    -0.85000
O134        O  0.63485533  0.54047032  0.37691241    -0.82000
C135        C  0.65502890  0.56100493  0.38703851     0.98500
O136        O  0.67585750  0.55975660  0.39338959    -0.82000
O137        O  0.70724732  0.53701600  0.40758994    -0.84700
C138        C  0.70051808  0.52697355  0.42751674     1.03000
O139        O  0.67614165  0.50648026  0.43151664    -0.77500
O140        O  0.61909232  0.47111187  0.42590083    -0.77600
C141        C  0.60941828  0.48666915  0.42900685     1.03000
O142        O  0.59659571  0.45767218  0.38511431    -0.85000
O143        O  0.62567234  0.49449858  0.35027099    -0.82000
C144        C  0.64608220  0.51303278  0.33891141     0.98500
O145        O  0.66757025  0.53298438  0.34881665    -0.82100
O146        O  0.69558365  0.50848977  0.36504864    -0.84700
C147        C  0.69742017  0.48979369  0.37542818     1.03000
O148        O  0.68559516  0.48031811  0.39432923    -0.77500
O149        O  0.62912640  0.44763015  0.38655980    -0.77600
C150        C  0.60404612  0.44024253  0.38276379     1.02900
Cr151      Cr  0.61995824  0.49968664  0.38225326     1.93700
Cr152      Cr  0.68413004  0.53257766  0.37955701     1.93200
Cr153      Cr  0.65247347  0.47838528  0.40814314     1.39100
O154        O  0.65243150  0.50360520  0.39000197    -1.22700
O155        O  0.50336471  0.38096617  0.59404082    -0.85000
O156        O  0.46497570  0.35727517  0.62812388    -0.82000
C157        C  0.44275463  0.34137074  0.61699357     0.98500
O158        O  0.43927345  0.31942291  0.60798510    -0.82000
O159        O  0.45349089  0.28215788  0.58986192    -0.84700
C160        C  0.46440306  0.29039452  0.57045672     1.03000
O161        O  0.48604429  0.31442900  0.56803295    -0.77500
O162        O  0.52987317  0.36794882  0.57838325    -0.77600
C163        C  0.51876291  0.38251665  0.57807001     1.03000
O164        O  0.54570821  0.38133392  0.62305192    -0.85000
O165        O  0.50415673  0.35137526  0.65502115    -0.82000
C166        C  0.48179919  0.33207856  0.66394160     0.98500
O167        O  0.46118669  0.31499657  0.65162785    -0.82100
O168        O  0.47898402  0.28263205  0.63200147    -0.84700
C169        C  0.49525899  0.27855258  0.62040851     1.03000
O170        O  0.50547512  0.29174586  0.60202351    -0.77500
O171        O  0.54622454  0.34402570  0.61425605    -0.77600
C172        C  0.55843719  0.36834431  0.62216051     1.02900
Cr173      Cr  0.50382423  0.36521493  0.62410186     1.93700
Cr174      Cr  0.46055706  0.30219499  0.61967551     1.93200
Cr175      Cr  0.51515636  0.32985475  0.59219278     1.39100
O176        O  0.49316382  0.33230030  0.61197500    -1.22700
O177        O  0.49019387  0.12010648  0.40704896    -0.85000
O178        O  0.45038348  0.10684192  0.37323138    -0.82000
C179        C  0.43034888  0.10460691  0.38458715     0.98500
O180        O  0.43186613  0.12633747  0.39212240    -0.82000
O181        O  0.45569105  0.18193694  0.40651706    -0.84700
C182        C  0.46634922  0.18492703  0.42609963     1.03000
O183        O  0.48601593  0.18068230  0.42935247    -0.77500
O184        O  0.52098308  0.16147558  0.42126713    -0.77600
C185        C  0.50765816  0.13497219  0.42225303     1.03000
O186        O  0.53330883  0.15630009  0.37705089    -0.85000
O187        O  0.49384723  0.14835843  0.34456081    -0.82000
C188        C  0.47338288  0.14807546  0.33523487     0.98500
O189        O  0.45443625  0.14725149  0.34723759    -0.82100
O190        O  0.48224978  0.20137495  0.36338455    -0.84700
C191        C  0.50062743  0.22257127  0.37424189     1.03000
O192        O  0.51055522  0.21980757  0.39276725    -0.77500
O193        O  0.54419672  0.19918401  0.38305287    -0.77600
C194        C  0.55111704  0.18222240  0.37711696     1.02900
Cr195      Cr  0.49153048  0.13512065  0.37622401     1.93700
Cr196      Cr  0.45818772  0.16392670  0.37807964     1.93200
Cr197      Cr  0.51337190  0.18813952  0.40507555     1.39100
O198        O  0.48769438  0.16241820  0.38667989    -1.22700
O199        O  0.87482967  0.51325962  0.58685456    -0.85000
O200        O  0.89135817  0.54850616  0.62374019    -0.82000
C201        C  0.89230732  0.56945452  0.61490850     0.98500
O202        O  0.86985434  0.56865773  0.61033801    -0.82000
O203        O  0.81338808  0.54402275  0.59649491    -0.84700
C204        C  0.80889314  0.53396376  0.57659401     1.03000
O205        O  0.81251876  0.51421555  0.57222602    -0.77500
O206        O  0.83292928  0.47939837  0.57623266    -0.77600
C207        C  0.85887266  0.49531884  0.57240794     1.03000
O208        O  0.84328639  0.46645943  0.61675697    -0.85000
O209        O  0.85436897  0.50302415  0.65196121    -0.82000
C210        C  0.85423580  0.52158744  0.66370194     0.98500
O211        O  0.85122534  0.54033593  0.65425803    -0.82100
O212        O  0.79613492  0.51449192  0.63905845    -0.84700
C213        C  0.77444863  0.49582919  0.62882254     1.03000
O214        O  0.77629296  0.48680979  0.60982186    -0.77500
O215        O  0.79967273  0.45511210  0.61636563    -0.77600
C216        C  0.81761898  0.44842811  0.61929070     1.02900
Cr217      Cr  0.86361071  0.50812141  0.61932013     1.93700
Cr218      Cr  0.83294611  0.53977731  0.62407697     1.93200
Cr219      Cr  0.80757954  0.48600824  0.59514657     1.39100
O220        O  0.83459071  0.51142966  0.61287113    -1.22700
O221        O  0.86368447  0.39389020  0.40814477    -0.85000
O222        O  0.88040856  0.37577058  0.37231666    -0.82000
C223        C  0.88709022  0.35907429  0.38035130     0.98500
O224        O  0.86854716  0.33517231  0.38787062    -0.82000
O225        O  0.81627285  0.29396077  0.40601903    -0.84700
C226        C  0.81571897  0.30063719  0.42641940     1.03000
O227        O  0.81817208  0.32372894  0.43063660    -0.77500
O228        O  0.82281275  0.37493955  0.42460775    -0.77600
C229        C  0.84893171  0.39251082  0.42459139     1.03000
O230        O  0.81856413  0.39038346  0.38061924    -0.85000
O231        O  0.83350847  0.36809235  0.34600622    -0.82000
C232        C  0.83789703  0.35153106  0.33527412     0.98500
O233        O  0.84166071  0.33410811  0.34596998    -0.82100
O234        O  0.78972894  0.29872257  0.36510028    -0.84700
C235        C  0.76904109  0.29079653  0.37797596     1.03000
O236        O  0.77297141  0.29894511  0.39833432    -0.77500
O237        O  0.78103096  0.35019256  0.38975242    -0.77600
C238        C  0.79213735  0.37481074  0.38235884     1.02900
Cr239      Cr  0.84740669  0.37947437  0.37759364     1.93700
Cr240      Cr  0.82884353  0.31741472  0.37718506     1.93200
Cr241      Cr  0.80083719  0.33761670  0.40927507     1.39100
O242        O  0.82593271  0.34498036  0.38811648    -1.22700
O243        O  0.61339369  0.12962177  0.58477851    -0.85000
O244        O  0.63516816  0.11584864  0.62054306    -0.82000
C245        C  0.65549841  0.11425669  0.61338727     0.98500
O246        O  0.67868435  0.13599823  0.60844458    -0.82000
O247        O  0.71453494  0.19055935  0.59219445    -0.84700
C248        C  0.70866748  0.19101997  0.57138762     1.03000
O249        O  0.68441660  0.18491930  0.56568227    -0.77500
O250        O  0.62947140  0.17044629  0.56830274    -0.77600
C251        C  0.61368002  0.14406170  0.56823045     1.03000
O252        O  0.60816644  0.16867891  0.61213110    -0.85000
O253        O  0.63332039  0.15774901  0.64743185    -0.82000
C254        C  0.65179778  0.15740266  0.65941028     0.98500
O255        O  0.67190103  0.15729814  0.65009641    -0.82100
O256        O  0.70194598  0.21081211  0.63230795    -0.84700
C257        C  0.70841499  0.23135102  0.61942421     1.03000
O258        O  0.70014808  0.22749094  0.59898706    -0.77500
O259        O  0.64514252  0.20991065  0.60431992    -0.77600
C260        C  0.62016761  0.19507597  0.61084859     1.02900
Cr261      Cr  0.62529563  0.14501751  0.61560780     1.93700
Cr262      Cr  0.68946347  0.17341906  0.61968283     1.93200
Cr263      Cr  0.66430915  0.19609030  0.58591647     1.39100
O264        O  0.65953911  0.17120348  0.60687235    -1.22700
O265        O  0.66595815  0.49050906  0.07038185    -0.85000
O266        O  0.72173206  0.51550616  0.08046985    -0.82000
C267        C  0.72941112  0.54069229  0.07652985     0.98500
O268        O  0.72291010  0.55352811  0.09006634    -0.82000
O269        O  0.69462998  0.56232334  0.12441442    -0.84700
C270        C  0.67251579  0.55879240  0.11530215     1.03000
O271        O  0.65409351  0.53515042  0.10787594    -0.77500
O272        O  0.62989679  0.48226226  0.09093983    -0.77600
C273        C  0.64105760  0.48453646  0.07180845     1.03000
O274        O  0.65230893  0.45015155  0.10556549    -0.85000
O275        O  0.70737394  0.47928956  0.11911972    -0.82000
C276        C  0.73166429  0.49891413  0.12446088     0.98500
O277        O  0.73816855  0.52415408  0.12252850    -0.82100
O278        O  0.70465923  0.52815406  0.15405074    -0.84700
C279        C  0.68239493  0.52250037  0.16380397     1.03000
O280        O  0.66040319  0.51605422  0.15243065    -0.77500
O281        O  0.63810467  0.46339911  0.13449505    -0.77600
C282        C  0.63783947  0.44438847  0.12325282     1.02900
Cr283      Cr  0.68644408  0.48556045  0.09530203     1.93700
Cr284      Cr  0.71278321  0.53972361  0.12198966     1.93200
Cr285      Cr  0.64836724  0.49994130  0.12086016     1.39100
O286        O  0.68233216  0.50827996  0.11290025    -1.22700
O287        O  0.53947926  0.38412272  0.93133032    -0.85000
O288        O  0.50161141  0.32688705  0.93358473    -0.82000
C289        C  0.48290357  0.30250247  0.92746921     0.98500
O290        O  0.47714754  0.29681624  0.90661719    -0.82000
O291        O  0.45395908  0.32683499  0.89005848    -0.84700
C292        C  0.45344066  0.34861442  0.88574961     1.03000
O293        O  0.47517977  0.37084186  0.87910460    -0.77500
O294        O  0.50788288  0.39178967  0.91727285    -0.77600
C295        C  0.52446950  0.39457313  0.93303698     1.03000
O296        O  0.56687480  0.37557424  0.89458428    -0.85000
O297        O  0.53275546  0.31874340  0.90016525    -0.82000
C298        C  0.52935724  0.31104204  0.87974398     0.98500
O299        O  0.51267860  0.31381699  0.86708915    -0.82100
O300        O  0.48646410  0.33987105  0.84941942    -0.84700
C301        C  0.50622813  0.36244795  0.84093855     1.03000
O302        O  0.52328183  0.38233216  0.85355327    -0.77500
O303        O  0.55712309  0.40830596  0.89077732    -0.77600
C304        C  0.57458234  0.40065452  0.89036846     1.02900
Cr305      Cr  0.53335234  0.35144675  0.91333278     1.93700
Cr306      Cr  0.48450744  0.32169304  0.87937700     1.93200
Cr307      Cr  0.51545149  0.38570311  0.88567470     1.39100
O308        O  0.51090446  0.35286544  0.89281717    -1.22700
O309        O  0.66838363  0.19613353  0.92821644    -0.85000
O310        O  0.72504116  0.22261573  0.91972537    -0.82000
C311        C  0.72927182  0.20330679  0.92490234     0.98500
O312        O  0.71842233  0.18153602  0.91289381    -0.82000
O313        O  0.68502165  0.14201661  0.87969835    -0.84700
C314        C  0.66025126  0.12619144  0.88691157     1.03000
O315        O  0.64499450  0.13579240  0.89082767    -0.77500
O316        O  0.63150744  0.17283781  0.90578113    -0.77600
C317        C  0.64223488  0.18054688  0.92550687     1.03000
O318        O  0.66225835  0.22647372  0.89218081    -0.85000
O319        O  0.71663895  0.24564177  0.87938120    -0.82000
C320        C  0.73887555  0.24653393  0.87448452     0.98500
O321        O  0.74106167  0.22544349  0.87811117    -0.82100
O322        O  0.70518826  0.18696142  0.84719434    -0.84700
C323        C  0.68249480  0.17363007  0.83623691     1.03000
O324        O  0.65904701  0.16182674  0.84628000    -0.77500
O325        O  0.64763452  0.20082093  0.86180270    -0.77600
C326        C  0.64924364  0.22019713  0.87346819     1.02900
Cr327      Cr  0.69241512  0.22043061  0.90351427     1.93700
Cr328      Cr  0.71023833  0.18433672  0.88008186     1.93200
Cr329      Cr  0.64862186  0.16947942  0.87686204     1.39100
O330        O  0.68361487  0.19113901  0.88667459    -1.22700
O331        O  0.85698762  0.50129216  0.93273608    -0.85000
O332        O  0.81661093  0.51470388  0.92707106    -0.82000
C333        C  0.83117002  0.54069176  0.93109923     0.98500
O334        O  0.85004502  0.55698246  0.91749193    -0.82000
O335        O  0.88884273  0.57581424  0.88244378    -0.84700
C336        C  0.90982068  0.57530873  0.89004795     1.03000
O337        O  0.90752689  0.55244212  0.89519130    -0.77500
O338        O  0.88435713  0.49775533  0.90854815    -0.77600
C339        C  0.87650980  0.49722739  0.92885095     1.03000
O340        O  0.83267298  0.46137701  0.89656956    -0.85000
O341        O  0.79765422  0.48033326  0.88734558    -0.82000
C342        C  0.78885640  0.49620910  0.88263094     0.98500
O343        O  0.80449403  0.52256073  0.88554695    -0.82100
O344        O  0.84388000  0.53862492  0.85238875    -0.84700
C345        C  0.86252352  0.53862040  0.84081966     1.03000
O346        O  0.88134635  0.53587462  0.85043309    -0.77500
O347        O  0.85434071  0.48143368  0.86502702    -0.77600
C348        C  0.83919999  0.45963345  0.87645093     1.02900
Cr349      Cr  0.82772091  0.49141292  0.90966834     1.93700
Cr350      Cr  0.84722909  0.54660252  0.88505397     1.93200
Cr351      Cr  0.87993710  0.51706040  0.88058316     1.39100
O352        O  0.85175345  0.51852475  0.89166881    -1.22700
O353        O  0.54195044  0.19134405  0.06835706    -0.85000
O354        O  0.49459250  0.19345713  0.06675453    -0.82000
C355        C  0.47321292  0.19369738  0.07234503     0.98500
O356        O  0.46640619  0.19128197  0.09309800    -0.82000
O357        O  0.45493686  0.13876518  0.10764509    -0.84700
C358        C  0.46001295  0.11974713  0.11154013     1.03000
O359        O  0.48419717  0.12566298  0.11783807    -0.77500
O360        O  0.51952897  0.14842249  0.08160260    -0.77600
C361        C  0.53288271  0.16564050  0.06591802     1.03000
O362        O  0.56127430  0.22842220  0.10634587    -0.85000
O363        O  0.51676994  0.23540978  0.10133544    -0.82000
C364        C  0.51181090  0.23668451  0.12198615     0.98500
O365        O  0.50001754  0.21479941  0.13400014    -0.82100
O366        O  0.48391678  0.16210256  0.14953371    -0.84700
C367        C  0.50613474  0.16543408  0.15837088     1.03000
O368        O  0.52629309  0.17002060  0.14606758    -0.77500
O369        O  0.56283146  0.19043363  0.11041434    -0.77600
C370        C  0.57472653  0.21684923  0.11101317     1.02900
Cr371      Cr  0.52722405  0.20995909  0.08722646     1.93700
Cr372      Cr  0.47856246  0.17707906  0.12000025     1.93200
Cr373      Cr  0.52215197  0.16027961  0.11352641     1.39100
O374        O  0.50920367  0.18220106  0.10688096    -1.22700
O375        O  0.85250708  0.37779931  0.06729117    -0.85000
O376        O  0.84210313  0.32448503  0.06483339    -0.82000
C377        C  0.83678848  0.30037769  0.07000117     0.98500
O378        O  0.83475435  0.29317964  0.09076988    -0.82000
O379        O  0.88702478  0.32951926  0.11105746    -0.84700
C380        C  0.90803623  0.35312675  0.11630407     1.03000
O381        O  0.90535282  0.37324479  0.12209529    -0.77500
O382        O  0.89258198  0.39454217  0.08507652    -0.77600
C383        C  0.87884181  0.39369211  0.06773439     1.03000
O384        O  0.81020133  0.35896923  0.10119107    -0.85000
O385        O  0.79575412  0.30522086  0.09484538    -0.82000
C386        C  0.78983293  0.29727323  0.11521709     0.98500
O387        O  0.80911261  0.30288381  0.12929942    -0.82100
O388        O  0.86046804  0.33388131  0.15063378    -0.84700
C389        C  0.85991035  0.35405517  0.15934407     1.03000
O390        O  0.86093208  0.37288686  0.14690790    -0.77500
O391        O  0.85008056  0.39671220  0.11092568    -0.77600
C392        C  0.82360000  0.38346822  0.10889304     1.02900
Cr393      Cr  0.82712013  0.34209443  0.08377282     1.93700
Cr394      Cr  0.84810105  0.31718824  0.11933315     1.93200
Cr395      Cr  0.87533593  0.38155816  0.11553998     1.39100
O396        O  0.85052638  0.34711646  0.10617392    -1.22700
O397        O  0.39617473  0.51484748  0.91229630    -0.85000
O398        O  0.36747337  0.47307808  0.88020312    -0.82000
C399        C  0.34849199  0.45311018  0.89182765     0.98500
O400        O  0.32803128  0.45425099  0.89905429    -0.82000
O401        O  0.29674263  0.47739144  0.91197886    -0.84700
C402        C  0.30561714  0.48806351  0.93129911     1.03000
O403        O  0.33074475  0.50754709  0.93395698    -0.77500
O404        O  0.38593675  0.54488651  0.92524714    -0.77600
C405        C  0.39877794  0.53209626  0.92716330     1.03000
O406        O  0.40290431  0.55585170  0.88003952    -0.85000
O407        O  0.36994351  0.51380322  0.84896416    -0.82000
C408        C  0.34844838  0.49248240  0.84077882     0.98500
O409        O  0.32984678  0.47429308  0.85371782    -0.82100
O410        O  0.30493679  0.50239585  0.86801181    -0.84700
C411        C  0.30234666  0.52032828  0.87850190     1.03000
O412        O  0.31485146  0.53009999  0.89721337    -0.77500
O413        O  0.37047793  0.56529535  0.88651168    -0.77600
C414        C  0.39479964  0.57291286  0.88004257     1.02900
Cr415      Cr  0.38160016  0.51402526  0.88110728     1.93700
Cr416      Cr  0.31741919  0.47929741  0.88386968     1.93200
Cr417      Cr  0.35049864  0.53492416  0.90925979     1.39100
O418        O  0.34992434  0.50949532  0.89149182    -1.22700
O419        O  0.14366058  0.51687784  0.09767422    -0.85000
O420        O  0.12862202  0.47573259  0.12993705    -0.82000
C421        C  0.12539614  0.45648808  0.11698434     0.98500
O422        O  0.14649603  0.45729095  0.10890082    -0.82000
O423        O  0.20099274  0.47944350  0.09395746    -0.84700
C424        C  0.20306418  0.49097088  0.07497529     1.03000
O425        O  0.19985720  0.51146503  0.07331904    -0.77500
O426        O  0.18491078  0.54925240  0.08485928    -0.77600
C427        C  0.15848855  0.53478629  0.08278743     1.03000
O428        O  0.18188177  0.55875219  0.12972781    -0.85000
O429        O  0.17071902  0.51561633  0.15998016    -0.82000
C430        C  0.16905558  0.49372578  0.16771861     0.98500
O431        O  0.16823452  0.47580615  0.15440642    -0.82100
O432        O  0.22213802  0.50220283  0.13765897    -0.84700
C433        C  0.24337255  0.52122385  0.12725717     1.03000
O434        O  0.24066982  0.53204578  0.10922296    -0.77500
O435        O  0.22347133  0.56647772  0.12268986    -0.77600
C436        C  0.20828603  0.57472169  0.13033686     1.02900
Cr437      Cr  0.15826181  0.51653094  0.12847936     1.93700
Cr438      Cr  0.18428544  0.48088231  0.12323716     1.93200
Cr439      Cr  0.21014736  0.53778359  0.09890400     1.39100
O440        O  0.18443529  0.51182824  0.11695179    -1.22700
O441        O  0.13758176  0.62471710  0.91424744    -0.85000
O442        O  0.12515269  0.65266530  0.88167708    -0.82000
C443        C  0.12509402  0.67022439  0.89473231     0.98500
O444        O  0.14787768  0.68959990  0.90303383    -0.82000
O445        O  0.20350779  0.71965400  0.91766340    -0.84700
C446        C  0.20744490  0.70973658  0.93572812     1.03000
O447        O  0.20286633  0.68525146  0.93615546    -0.77500
O448        O  0.17784075  0.62995000  0.92446804    -0.77600
C449        C  0.15209191  0.62020914  0.92814146     1.03000
O450        O  0.16832754  0.61490697  0.88113252    -0.85000
O451        O  0.16222528  0.65017439  0.85086023    -0.82000
C452        C  0.16434292  0.67234282  0.84317992     0.98500
O453        O  0.16692371  0.69109854  0.85664060    -0.82100
O454        O  0.22094508  0.71739972  0.87280746    -0.84700
C455        C  0.24173576  0.71764776  0.88137398     1.03000
O456        O  0.23888030  0.70171355  0.89780671    -0.77500
O457        O  0.21256401  0.64726947  0.88439454    -0.77600
C458        C  0.19378094  0.62274396  0.87908064     1.02900
Cr459      Cr  0.15068848  0.63798415  0.88276063     1.93700
Cr460      Cr  0.18430505  0.70179622  0.88801817     1.93200
Cr461      Cr  0.20597629  0.66623422  0.90936594     1.39100
O462        O  0.18063548  0.66893624  0.89335054    -1.22700
O463        O  0.51675621  0.88800424  0.91344706    -0.85000
O464        O  0.54818964  0.90238345  0.87479719    -0.82000
C465        C  0.57194573  0.90880711  0.88260594     0.98500
O466        O  0.57616514  0.88973424  0.88896776    -0.82000
O467        O  0.56206262  0.83718023  0.90731988    -0.84700
C468        C  0.55604346  0.83637384  0.92813904     1.03000
O469        O  0.53649144  0.83977763  0.93375018    -0.77500
O470        O  0.49169684  0.84734480  0.93054843    -0.77600
C471        C  0.50318238  0.87368925  0.93042749     1.03000
O472        O  0.46876333  0.84371846  0.88893014    -0.85000
O473        O  0.50243477  0.85534590  0.85217953    -0.82000
C474        C  0.52142775  0.85741019  0.83968326     0.98500
O475        O  0.54422310  0.86183625  0.84829643    -0.82100
O476        O  0.52598429  0.81076146  0.86833502    -0.84700
C477        C  0.51245092  0.79033863  0.88172973     1.03000
O478        O  0.50957017  0.79454871  0.90225411    -0.77500
O479        O  0.46811327  0.80512185  0.89610306    -0.77600
C480        C  0.45576502  0.81723291  0.88972557     1.02900
Cr481      Cr  0.50991773  0.87076513  0.88306091     1.93700
Cr482      Cr  0.55027654  0.84993969  0.87927970     1.93200
Cr483      Cr  0.50288203  0.82369195  0.91411298     1.39100
O484        O  0.52120511  0.84831731  0.89227105    -1.22700
O485        O  0.40906088  0.89390296  0.09374060    -0.85000
O486        O  0.38414640  0.90548218  0.12881901    -0.82000
C487        C  0.36456649  0.90400049  0.11702690     0.98500
O488        O  0.34436370  0.88044377  0.11085436    -0.82000
O489        O  0.31472231  0.82436697  0.09836714    -0.84700
C490        C  0.32288391  0.82131903  0.07925022     1.03000
O491        O  0.34783605  0.82773343  0.07668645    -0.77500
O492        O  0.40454800  0.85414690  0.08397210    -0.77600
C493        C  0.41336338  0.87965240  0.07988547     1.03000
O494        O  0.42503683  0.86567377  0.12545843    -0.85000
O495        O  0.39350933  0.87115729  0.15837108    -0.82000
C496        C  0.37247411  0.86833189  0.16846786     0.98500
O497        O  0.35104730  0.86414413  0.15723574    -0.82100
O498        O  0.32490038  0.80945993  0.14264288    -0.84700
C499        C  0.32439452  0.78910074  0.13335374     1.03000
O500        O  0.33745978  0.79243291  0.11513375    -0.77500
O501        O  0.39359151  0.82094424  0.12465733    -0.77600
C502        C  0.41841121  0.84063215  0.12823539     1.02900
Cr503      Cr  0.40051061  0.88169522  0.12600237     1.93700
Cr504      Cr  0.33625761  0.84525373  0.12660931     1.93200
Cr505      Cr  0.37070842  0.82576092  0.10145590     1.39100
O506        O  0.36892183  0.85063051  0.11808816    -1.22700
O507        O  0.50997821  0.63270639  0.09311263    -0.85000
O508        O  0.55125761  0.65537609  0.12599832    -0.82000
C509        C  0.57286239  0.67162152  0.11435198     0.98500
O510        O  0.57725000  0.69493053  0.10733370    -0.82000
O511        O  0.56538873  0.73522850  0.09264321    -0.84700
C512        C  0.55598884  0.72840973  0.07261654     1.03000
O513        O  0.53445352  0.70471591  0.06898768    -0.77500
O514        O  0.48894593  0.65184147  0.07614711    -0.77600
C515        C  0.49589490  0.63379421  0.07675972     1.03000
O516        O  0.47148096  0.63531395  0.12243961    -0.85000
O517        O  0.51342628  0.66207094  0.15462532    -0.82000
C518        C  0.53607172  0.68016636  0.16400778     0.98500
O519        O  0.55720950  0.69605704  0.15195027    -0.82100
O520        O  0.53856485  0.72934283  0.13518585    -0.84700
C521        C  0.52387545  0.73598097  0.12360287     1.03000
O522        O  0.51549182  0.72623629  0.10384588    -0.77500
O523        O  0.47208980  0.67328722  0.11252848    -0.77600
C524        C  0.45936796  0.64883135  0.12053476     1.02900
Cr525      Cr  0.51256765  0.64906953  0.12326750     1.93700
Cr526      Cr  0.55733682  0.71171983  0.12101119     1.93200
Cr527      Cr  0.50432877  0.68847537  0.09189301     1.39100
O528        O  0.52464120  0.68290293  0.11184839    -1.22700
C529        C  0.49263445  0.78188189  0.12710672     0.19100
C530        C  0.49499981  0.80412391  0.11425096    -0.19000
C531        C  0.47755612  0.81423104  0.11844774    -0.11300
C532        C  0.45696710  0.80185285  0.13535346     0.21300
C533        C  0.45503464  0.78004914  0.14861954    -0.20600
C534        C  0.47296601  0.77033049  0.14474132    -0.11500
C535        C  0.43513352  0.80889001  0.13709960    -0.15600
C536        C  0.44064583  0.83484351  0.13300544    -0.29500
C537        C  0.50741393  0.76824157  0.11929685    -0.03800
C538        C  0.51563606  0.75468977  0.13309106    -0.40300
H539        H  0.50963798  0.81295447  0.10031188     0.12500
H540        H  0.47902790  0.83051283  0.10747022     0.12100
H541        H  0.43902226  0.76993032  0.16147090     0.11500
H542        H  0.47014905  0.75262086  0.15451360     0.11800
H543        H  0.41374129  0.79192907  0.14033204     0.14500
H544        H  0.46220799  0.85208892  0.13112194     0.13300
H545        H  0.51046040  0.76828021  0.10110614     0.11000
H546        H  0.51471740  0.75601136  0.15139562     0.13000
C547        C  0.56604699  0.80591840  0.98371607     0.19100
C548        C  0.56758943  0.81145466  0.00702717    -0.19000
C549        C  0.56691434  0.79255953  0.02310548    -0.11300
C550        C  0.56405490  0.76730361  0.01621448     0.21300
C551        C  0.56308455  0.76201069  0.99289245    -0.20600
C552        C  0.56439505  0.78122482  0.97678495    -0.11500
C553        C  0.55801198  0.74469995  0.03291414    -0.15600
C554        C  0.56820812  0.74982054  0.05430354    -0.29500
C555        C  0.56154952  0.82365301  0.96739577    -0.03800
C556        C  0.56891915  0.82699200  0.94535840    -0.40300
H557        H  0.56828433  0.83000013  0.01284347     0.12500
H558        H  0.56686044  0.79696646  0.04092098     0.12100
H559        H  0.56036668  0.74250764  0.98713618     0.11500
H560        H  0.56229204  0.77583143  0.95900290     0.11800
H561        H  0.54325027  0.72323339  0.02779354     0.14500
H562        H  0.58395796  0.77108847  0.05917301     0.13300
H563        H  0.54973926  0.83253957  0.97348057     0.11000
H564        H  0.58180218  0.81931850  0.93931231     0.13000
C565        C  0.47102879  0.88580870  0.98230028     0.19100
C566        C  0.44619265  0.88515994  0.98652391    -0.19000
C567        C  0.43905863  0.88752607  0.00867268    -0.11300
C568        C  0.45634884  0.88975718  0.02699676     0.21300
C569        C  0.48184907  0.89181039  0.02263319    -0.20600
C570        C  0.48936310  0.89026320  0.00043261    -0.11500
C571        C  0.44574424  0.88430743  0.05050860    -0.15600
C572        C  0.42884629  0.89228595  0.05871846    -0.29500
C573        C  0.47497631  0.87683735  0.95992355    -0.03800
C574        C  0.50013595  0.88741170  0.95027654    -0.40300
H575        H  0.43163553  0.88140404  0.97279459     0.12500
H576        H  0.41897634  0.88524963  0.01158610     0.12100
H577        H  0.49526134  0.89310684  0.03654427     0.11500
H578        H  0.50836486  0.89024925  0.99769773     0.11800
H579        H  0.45070982  0.87153144  0.06112743     0.14500
H580        H  0.42521917  0.90680475  0.04930678     0.13300
H581        H  0.45649297  0.85997705  0.95148459     0.11000
H582        H  0.51859274  0.90575378  0.95728654     0.13000
C583        C  0.28774073  0.77857063  0.02474088     0.19100
C584        C  0.26427255  0.77966963  0.01771730    -0.19000
C585        C  0.24625111  0.76176560  0.00049437    -0.11300
C586        C  0.25118807  0.74220396  0.99037673     0.21300
C587        C  0.27437381  0.74105107  0.99772378    -0.20600
C588        C  0.29256419  0.75919916  0.01437841    -0.11500
C589        C  0.23287672  0.72222493  0.97238269    -0.15600
C590        C  0.21955045  0.72793099  0.95604396    -0.29500
C591        C  0.30830476  0.79725118  0.04233280    -0.03800
C592        C  0.30243206  0.80807010  0.06018685    -0.40300
H593        H  0.26010488  0.79456346  0.02518975     0.12500
H594        H  0.22835825  0.76296208  0.99536307     0.12100
H595        H  0.27871573  0.72624023  0.99027316     0.11500
H596        H  0.31043028  0.75785486  0.01938385     0.11800
H597        H  0.23317310  0.70314049  0.97096277     0.14500
H598        H  0.22070542  0.74780585  0.95608637     0.13300
H599        H  0.32886842  0.79983684  0.04173655     0.11000
H600        H  0.28154904  0.80435812  0.06209744     0.13000
C601        C  0.37945605  0.79081410  0.87244205     0.19100
C602        C  0.36165998  0.80079682  0.87621612    -0.19000
C603        C  0.33252002  0.78239112  0.87597854    -0.11300
C604        C  0.32081436  0.75372121  0.87183396     0.21300
C605        C  0.33855273  0.74416763  0.86651895    -0.20600
C606        C  0.36755576  0.76256266  0.86645773    -0.11500
C607        C  0.29089888  0.73280368  0.87610680    -0.15600
C608        C  0.27015864  0.73771734  0.87293271    -0.29500
C609        C  0.41010106  0.80963955  0.87634804    -0.03800
C610        C  0.42576382  0.79963270  0.88406679    -0.40300
H611        H  0.37031531  0.82251410  0.88061848     0.12500
H612        H  0.31934370  0.79028578  0.88044937     0.12100
H613        H  0.32995727  0.72220067  0.86310256     0.11500
H614        H  0.38057605  0.75436576  0.86238826     0.11800
H615        H  0.28585285  0.71256746  0.88278515     0.14500
H616        H  0.27421811  0.75683680  0.86465435     0.13300
H617        H  0.41945412  0.83210605  0.87458372     0.11000
H618        H  0.41614263  0.77733037  0.88705982     0.13000
C619        C  0.14787144  0.56625528  0.02849819     0.19100
C620        C  0.14685136  0.59000114  0.02288000    -0.19000
C621        C  0.14448024  0.59619643  0.00018445    -0.11300
C622        C  0.14405910  0.57917974  0.98271402     0.21300
C623        C  0.14387702  0.55481153  0.98843045    -0.20600
C624        C  0.14533359  0.54814786  0.01114040    -0.11500
C625        C  0.14947652  0.58926515  0.95889371    -0.15600
C626        C  0.13956613  0.60412333  0.94922472    -0.29500
C627        C  0.15639743  0.56316938  0.05168723    -0.03800
C628        C  0.14516954  0.53832396  0.06236502    -0.40300
H629        H  0.14915294  0.60441191  0.03598856     0.12500
H630        H  0.14530366  0.61546177  0.99625072     0.12100
H631        H  0.14402494  0.54165851  0.97523518     0.11500
H632        H  0.14668411  0.53002757  0.01498927     0.11800
H633        H  0.16384500  0.58583947  0.94938540     0.14500
H634        H  0.12361232  0.60608611  0.95763175     0.13300
H635        H  0.17348131  0.58179775  0.05972445     0.11000
H636        H  0.12673296  0.51997278  0.05533734     0.13000
C637        C  0.29706346  0.71104251  0.14318976     0.19100
C638        C  0.26779699  0.69658090  0.14574484    -0.19000
C639        C  0.25182744  0.66717839  0.14592403    -0.11300
C640        C  0.26492553  0.65178862  0.14358447     0.21300
C641        C  0.29428136  0.66647071  0.14250180    -0.20600
C642        C  0.31009310  0.69565099  0.14218085    -0.11500
C643        C  0.24939172  0.62091812  0.14002427    -0.15600
C644        C  0.22130581  0.60383216  0.13853251    -0.29500
C645        C  0.31434635  0.74147092  0.13808198    -0.03800
C646        C  0.30767113  0.76053577  0.14307971    -0.40300
H647        H  0.25703148  0.70779554  0.14624720     0.12500
H648        H  0.22932044  0.65687526  0.14694890     0.12100
H649        H  0.30505113  0.65533085  0.14080009     0.11500
H650        H  0.33259479  0.70625331  0.14015863     0.11800
H651        H  0.26211546  0.61201916  0.13681736     0.14500
H652        H  0.20756911  0.61140872  0.14194204     0.13300
H653        H  0.33359468  0.74846751  0.12881263     0.11000
H654        H  0.28984561  0.75511305  0.15370528     0.13000
C655        C  0.38193848  0.59540141  0.13562009     0.19100
C656        C  0.36450226  0.56614744  0.13363693    -0.19000
C657        C  0.33523303  0.55309138  0.13362525    -0.11300
C658        C  0.32296648  0.56918553  0.13559379     0.21300
C659        C  0.34032075  0.59812368  0.13884110    -0.20600
C660        C  0.36941401  0.61106779  0.13921133    -0.11500
C661        C  0.29279524  0.55750495  0.13112114    -0.15600
C662        C  0.27203118  0.53097466  0.13548045    -0.29500
C663        C  0.41281192  0.60895929  0.13273252    -0.03800
C664        C  0.42961236  0.63602532  0.12655711    -0.40300
H665        H  0.37352929  0.55350694  0.13107225     0.12500
H666        H  0.32236432  0.53075651  0.13076686     0.12100
H667        H  0.33130801  0.61092112  0.14051830     0.11500
H668        H  0.38183114  0.63341313  0.14189533     0.11800
H669        H  0.28741395  0.57176042  0.12345431     0.14500
H670        H  0.27608367  0.51670866  0.14480756     0.13300
H671        H  0.42156227  0.59578480  0.13388629     0.11000
H672        H  0.42105473  0.64917043  0.12404709     0.13000
C673        C  0.23599843  0.49120843  0.01867603     0.19100
C674        C  0.23112262  0.49205185  0.99540030    -0.19000
C675        C  0.24873735  0.49083591  0.97953062    -0.11300
C676        C  0.27196258  0.48948122  0.98675516     0.21300
C677        C  0.27697396  0.48891540  0.01001674    -0.20600
C678        C  0.25899092  0.48943088  0.02585612    -0.11500
C679        C  0.29281051  0.49182664  0.97034740    -0.15600
C680        C  0.28534400  0.47978616  0.94985371    -0.29500
C681        C  0.21882405  0.49502502  0.03535287    -0.03800
C682        C  0.21244917  0.48188455  0.05553668    -0.40300
H683        H  0.21389268  0.49400376  0.98952640     0.12500
H684        H  0.24491868  0.49222737  0.96165572     0.12100
H685        H  0.29507039  0.48848805  0.01592272     0.11500
H686        H  0.26381444  0.48968846  0.04372724     0.11800
H687        H  0.31486257  0.50493034  0.97487947     0.14500
H688        H  0.26329034  0.46565400  0.94579403     0.13300
H689        H  0.21291992  0.51016637  0.03149247     0.11000
H690        H  0.21736204  0.46588359  0.05878301     0.13000
C691        C  0.43215744  0.56038227  0.98511863     0.19100
C692        C  0.42350301  0.55436320  0.00779290    -0.19000
C693        C  0.44056038  0.57214200  0.02519339    -0.11300
C694        C  0.46614814  0.59676162  0.02006571     0.21300
C695        C  0.47511367  0.60246002  0.99747133    -0.20600
C696        C  0.45848462  0.58417475  0.98014828    -0.11500
C697        C  0.48136805  0.61852142  0.03749553    -0.15600
C698        C  0.48575739  0.61262580  0.05870898    -0.29500
C699        C  0.41152172  0.54505778  0.96679331    -0.03800
C700        C  0.41809015  0.53915019  0.94662221    -0.40300
H701        H  0.40301372  0.53648967  0.01192641     0.12500
H702        H  0.43288297  0.56767157  0.04243934     0.12100
H703        H  0.49454575  0.62158493  0.99315250     0.11500
H704        H  0.46527182  0.58973522  0.96273905     0.11800
H705        H  0.48840520  0.64001282  0.03286931     0.14500
H706        H  0.48087076  0.59169463  0.06304120     0.13300
H707        H  0.39031477  0.54028893  0.96946017     0.11000
H708        H  0.43842045  0.54174816  0.94398724     0.13000
C709        C  0.47175126  0.71015146  0.88167977     0.19100
C710        C  0.47539725  0.68997119  0.89244998    -0.19000
C711        C  0.45590359  0.66150532  0.88927410    -0.11300
C712        C  0.43193892  0.65264468  0.87566175     0.21300
C713        C  0.42828501  0.67282770  0.86480248    -0.20600
C714        C  0.44825963  0.70140911  0.86750814    -0.11500
C715        C  0.40944536  0.62261107  0.87475767    -0.15600
C716        C  0.41543434  0.60246682  0.87458201    -0.29500
C717        C  0.49036330  0.73983714  0.88810951    -0.03800
C718        C  0.49891740  0.76130957  0.87347491    -0.40300
H719        H  0.49303022  0.69628042  0.90381111     0.12500
H720        H  0.45887628  0.64646206  0.89843147     0.12100
H721        H  0.40973577  0.66646584  0.85457561     0.11500
H722        H  0.44457396  0.71662773  0.85954289     0.11800
H723        H  0.38779452  0.61706239  0.87564830     0.14500
H724        H  0.43703906  0.60825033  0.87245266     0.13300
H725        H  0.49667627  0.74412709  0.90583641     0.11000
H726        H  0.49443759  0.75738267  0.85546151     0.13000
C727        C  0.23594670  0.58788505  0.87067013     0.19100
C728        C  0.25962125  0.59302326  0.85863133    -0.19000
C729        C  0.27005828  0.57540666  0.86140273    -0.11300
C730        C  0.25737547  0.55283324  0.87677900     0.21300
C731        C  0.23346199  0.54742162  0.88849931    -0.20600
C732        C  0.22261015  0.56453619  0.88529516    -0.11500
C733        C  0.27128379  0.53777048  0.88373152    -0.15600
C734        C  0.28454015  0.53025502  0.86938218    -0.29500
C735        C  0.22773480  0.60897644  0.87026622    -0.03800
C736        C  0.20109003  0.60200521  0.87305326    -0.40300
H737        H  0.27053007  0.61117539  0.84760794     0.12500
H738        H  0.28902452  0.58047938  0.85266111     0.12100
H739        H  0.22375215  0.53048350  0.90078633     0.11500
H740        H  0.20485843  0.56047872  0.89536964     0.11800
H741        H  0.27120699  0.53332389  0.90175418     0.14500
H742        H  0.28305556  0.53231131  0.85115661     0.13300
H743        H  0.24433914  0.63091910  0.86909063     0.11000
H744        H  0.18428979  0.58010018  0.87293993     0.13000
C745        C  0.04545473  0.40952883  0.11982542     0.19100
C746        C  0.02581301  0.39351290  0.13667691    -0.19000
C747        C  0.99719616  0.38246912  0.13295811    -0.11300
C748        C  0.98785194  0.38799384  0.11251964     0.21300
C749        C  0.00733738  0.40320435  0.09538307    -0.20600
C750        C  0.03586773  0.41352868  0.09883899    -0.11500
C751        C  0.95880049  0.38164079  0.11012455    -0.15600
C752        C  0.93620908  0.35717825  0.11662566    -0.29500
C753        C  0.07562246  0.42609677  0.12599099    -0.03800
C754        C  0.09660915  0.43360089  0.11127320    -0.40300
H755        H  0.03277276  0.39059399  0.15311619     0.12500
H756        H  0.98264171  0.37128488  0.14660924     0.12100
H757        H  0.00057428  0.40797001  0.07961490     0.11500
H758        H  0.05056070  0.42638188  0.08574306     0.11800
H759        H  0.95593974  0.39777888  0.10276569     0.14500
H760        H  0.93844759  0.33995392  0.12209776     0.13300
H761        H  0.08076315  0.43406915  0.14322001     0.11000
H762        H  0.09233575  0.42438054  0.09450060     0.13000
C763        C  0.38999942  0.98179246  0.11637551     0.19100
C764        C  0.39066369  0.00080469  0.13193419    -0.19000
C765        C  0.40578649  0.02954000  0.12721363    -0.11300
C766        C  0.42126704  0.03982557  0.10711242     0.21300
C767        C  0.41995540  0.02077327  0.09123149    -0.20600
C768        C  0.40406993  0.99192593  0.09563950    -0.11500
C769        C  0.44206389  0.07014140  0.10422798    -0.15600
C770        C  0.43710771  0.09008968  0.11025590    -0.29500
C771        C  0.37958114  0.95273394  0.12392205    -0.03800
C772        C  0.36640316  0.93027930  0.11028925    -0.40300
H773        H  0.38047209  0.99348772  0.14821285     0.12500
H774        H  0.40699740  0.04381164  0.13999333     0.12100
H775        H  0.43209482  0.02830243  0.07579879     0.11500
H776        H  0.40454676  0.97777673  0.08362830     0.11800
H777        H  0.46254134  0.07623296  0.09768502     0.14500
H778        H  0.41614607  0.08444448  0.11505062     0.13300
H779        H  0.38478679  0.95003646  0.14121001     0.11000
H780        H  0.35914868  0.93191497  0.09351905     0.13000
C781        C  0.65227562  0.24115884  0.11919398     0.19100
C782        C  0.66738517  0.23032213  0.12927182    -0.19000
C783        C  0.69655796  0.24448025  0.12722472    -0.11300
C784        C  0.71103931  0.26965239  0.11481784     0.21300
C785        C  0.69599127  0.28070167  0.10511359    -0.20600
C786        C  0.66697833  0.26670811  0.10726247    -0.11500
C787        C  0.74126316  0.28383909  0.10971463    -0.15600
C788        C  0.76020988  0.28155713  0.12216467    -0.29500
C789        C  0.62118866  0.22396599  0.11923180    -0.03800
C790        C  0.60505328  0.23469868  0.11544476    -0.40300
H791        H  0.65649236  0.21047190  0.13824992     0.12500
H792        H  0.70744510  0.23506124  0.13448597     0.12100
H793        H  0.70666769  0.29992354  0.09526192     0.11500
H794        H  0.65617533  0.27537416  0.09857037     0.11800
H795        H  0.74846738  0.29773732  0.09501896     0.14500
H796        H  0.75438045  0.26965702  0.13790541     0.13300
H797        H  0.61130223  0.20147991  0.12145696     0.11000
H798        H  0.61436125  0.25717738  0.11433216     0.13000
C799        C  0.04670314  0.64564162  0.89158640     0.19100
C800        C  0.02774941  0.63934971  0.87354616    -0.19000
C801        C  0.99917166  0.62755117  0.87760153    -0.11300
C802        C  0.98883203  0.62123603  0.89985259     0.21300
C803        C  0.00789947  0.62850567  0.91797150    -0.20600
C804        C  0.03663151  0.64089408  0.91393268    -0.11500
C805        C  0.95837336  0.60224427  0.90408987    -0.15600
C806        C  0.93809056  0.60102464  0.89075498    -0.29500
C807        C  0.07563526  0.65302136  0.88630995    -0.03800
C808        C  0.09813181  0.66767516  0.90002248    -0.40300
H809        H  0.03491240  0.64243863  0.85616947     0.12500
H810        H  0.98499021  0.62146228  0.86322528     0.12100
H811        H  0.00036079  0.62333941  0.93523721     0.11500
H812        H  0.05053197  0.64488412  0.92820504     0.11800
H813        H  0.95252997  0.58657307  0.91737879     0.14500
H814        H  0.94309764  0.61745247  0.87838455     0.13300
H815        H  0.07837085  0.64536037  0.87031173     0.11000
H816        H  0.09664971  0.67735744  0.91531156     0.13000
C817        C  0.89104992  0.42339863  0.00686350     0.19100
C818        C  0.88511238  0.41131344  0.98522814    -0.19000
C819        C  0.88837744  0.42729389  0.96581653    -0.11300
C820        C  0.89697986  0.45558953  0.96762625     0.21300
C821        C  0.90463911  0.46819050  0.98918973    -0.20600
C822        C  0.90173363  0.45224355  0.00862652    -0.11500
C823        C  0.89510451  0.47032745  0.94708448    -0.15600
C824        C  0.88790015  0.48958168  0.94841432    -0.29500
C825        C  0.88171623  0.40463108  0.02707570    -0.03800
C826        C  0.89307868  0.41222885  0.04800454    -0.40300
H827        H  0.87678969  0.38912098  0.98341573     0.12500
H828        H  0.88250035  0.41706426  0.94946608     0.12100
H829        H  0.91203177  0.49013050  0.99118899     0.11500
H830        H  0.90620942  0.46214797  0.02506651     0.11800
H831        H  0.89495416  0.46192141  0.93053802     0.14500
H832        H  0.88516700  0.49602548  0.96496299     0.13300
H833        H  0.86374428  0.38352027  0.02467933     0.11000
H834        H  0.91232967  0.43227490  0.05073815     0.13000
C835        C  0.60747865  0.98976779  0.88025330     0.19100
C836        C  0.59498427  0.00572397  0.87892261    -0.19000
C837        C  0.61108170  0.03486183  0.87965265    -0.11300
C838        C  0.64041526  0.04920004  0.88187256     0.21300
C839        C  0.65318763  0.03338826  0.88276895    -0.20600
C840        C  0.63688002  0.00388197  0.88215381    -0.11500
C841        C  0.65764917  0.08053760  0.88200945    -0.15600
C842        C  0.64738764  0.09565169  0.89010845    -0.29500
C843        C  0.58845795  0.95876281  0.87857466    -0.03800
C844        C  0.59449618  0.93903667  0.88386267    -0.40300
H845        H  0.57245919  0.99557386  0.87711560     0.12500
H846        H  0.60037091  0.04607016  0.87785539     0.12100
H847        H  0.67577749  0.04387895  0.88402527     0.11500
H848        H  0.64732366  0.99234602  0.88276527     0.11800
H849        H  0.67846616  0.09117796  0.87469106     0.14500
H850        H  0.62706631  0.08480985  0.89827597     0.13300
H851        H  0.56713909  0.95166835  0.87327041     0.11000
H852        H  0.61519720  0.94488381  0.88988573     0.13000
C853        C  0.55524019  0.16506821  0.00474456     0.19100
C854        C  0.54973205  0.17312970  0.98368139    -0.19000
C855        C  0.56230085  0.17143272  0.96397063    -0.11300
C856        C  0.58126231  0.16243972  0.96508603     0.21300
C857        C  0.58591868  0.15324698  0.98602729    -0.20600
C858        C  0.57296882  0.15449329  0.00569089    -0.11500
C859        C  0.59723806  0.16467541  0.94450849    -0.15600
C860        C  0.62443555  0.17292629  0.94571349    -0.29500
C861        C  0.54498953  0.17107318  0.02560614    -0.03800
C862        C  0.53931210  0.15616224  0.04494966    -0.40300
H863        H  0.53623294  0.18145486  0.98258052     0.12500
H864        H  0.55832052  0.17851345  0.94801401     0.12100
H865        H  0.60003646  0.14568503  0.98731154     0.11500
H866        H  0.57798648  0.14853338  0.02172801     0.11800
H867        H  0.58760077  0.16299024  0.92802381     0.14500
H868        H  0.63482888  0.17710859  0.96213776     0.13300
H869        H  0.54233315  0.18886220  0.02505831     0.11000
H870        H  0.53957991  0.13701184  0.04545304     0.13000
C871        C  0.81953474  0.26941198  0.00958620     0.19100
C872        C  0.82908196  0.28147477  0.98807548    -0.19000
C873        C  0.81342280  0.26842237  0.96857969    -0.11300
C874        C  0.78779431  0.24276065  0.96990970     0.21300
C875        C  0.77912314  0.22932422  0.99117742    -0.20600
C876        C  0.79485455  0.24259429  0.01091946    -0.11500
C877        C  0.76908416  0.23385968  0.94956614    -0.15600
C878        C  0.74809932  0.20759924  0.94446503    -0.29500
C879        C  0.83333814  0.28779338  0.02968266    -0.03800
C880        C  0.82934302  0.27958990  0.05163726    -0.40300
H881        H  0.84793385  0.30203640  0.98642817     0.12500
H882        H  0.82062928  0.27927367  0.95245973     0.12100
H883        H  0.75925962  0.20970070  0.99281721     0.11500
H884        H  0.78658093  0.23271924  0.02718195     0.11800
H885        H  0.77276332  0.25062521  0.93794731     0.14500
H886        H  0.74486436  0.18978175  0.95440369     0.13300
H887        H  0.84598041  0.31013913  0.02610099     0.11000
H888        H  0.81804052  0.25752487  0.05610972     0.13000
C889        C  0.81257678  0.38166520  0.87063357     0.19100
C890        C  0.81791874  0.36310763  0.88232022    -0.19000
C891        C  0.80275187  0.33459965  0.87718433    -0.11300
C892        C  0.78160580  0.32411651  0.86042130     0.21300
C893        C  0.77749637  0.34297208  0.84780475    -0.20600
C894        C  0.79291819  0.37153012  0.85275090    -0.11500
C895        C  0.75988006  0.29390766  0.85914641    -0.15600
C896        C  0.76334479  0.27346028  0.86716739    -0.29500
C897        C  0.82484134  0.41037768  0.87944446    -0.03800
C898        C  0.82962799  0.43217820  0.86643585    -0.40300
H899        H  0.83287824  0.37047337  0.89623645     0.12500
H900        H  0.80610915  0.32069059  0.88764015     0.12100
H901        H  0.76106337  0.33534980  0.83504356     0.11500
H902        H  0.78790043  0.38518495  0.84369188     0.11800
H903        H  0.73897796  0.28860446  0.85401519     0.14500
H904        H  0.78410411  0.27749911  0.87098073     0.13300
H905        H  0.82990130  0.41364150  0.89745251     0.11000
H906        H  0.82714126  0.43009105  0.84813274     0.13000
C907        C  0.37464378  0.40268818  0.88755026     0.19100
C908        C  0.37886884  0.38890591  0.86979461    -0.19000
C909        C  0.39403226  0.37589542  0.87345083    -0.11300
C910        C  0.40590139  0.37711813  0.89484367     0.21300
C911        C  0.40074098  0.38990798  0.91281103    -0.20600
C912        C  0.38490631  0.40223477  0.90931403    -0.11500
C913        C  0.42804595  0.37050664  0.89748566    -0.15600
C914        C  0.42733855  0.34872818  0.88754078    -0.29500
C915        C  0.36443399  0.42161209  0.88204216    -0.03800
C916        C  0.35096549  0.42865797  0.89668391    -0.40300
H917        H  0.37161250  0.38942442  0.85278593     0.12500
H918        H  0.39834376  0.36687260  0.85915194     0.12100
H919        H  0.41016705  0.39157456  0.92932384     0.11500
H920        H  0.38266354  0.41329574  0.92320278     0.11800
H921        H  0.44675345  0.38545685  0.90691887     0.14500
H922        H  0.40834841  0.33232789  0.87937064     0.13300
H923        H  0.36991394  0.43164708  0.86542538     0.11000
H924        H  0.34324702  0.41755900  0.91269525     0.13000
C925        C  0.46176354  0.22065273  0.01595518     0.19100
C926        C  0.46431845  0.21663465  0.99287105    -0.19000
C927        C  0.46664248  0.23597359  0.97653989    -0.11300
C928        C  0.46676782  0.26003444  0.98299327     0.21300
C929        C  0.46314588  0.26353499  0.00596874    -0.20600
C930        C  0.46043236  0.24396008  0.02229728    -0.11500
C931        C  0.47447885  0.28337882  0.96668800    -0.15600
C932        C  0.46935610  0.27941286  0.94425119    -0.29500
C933        C  0.46594186  0.20342673  0.03295761    -0.03800
C934        C  0.45881495  0.20100879  0.05499774    -0.40300
H935        H  0.46595333  0.19918800  0.98756654     0.12500
H936        H  0.47020872  0.23292863  0.95911036     0.12100
H937        H  0.46355479  0.28206111  0.01141268     0.11500
H938        H  0.45929160  0.24824433  0.03995805     0.11800
H939        H  0.48608476  0.30458038  0.97326324     0.14500
H940        H  0.45648258  0.25830228  0.93770488     0.13300
H941        H  0.47822791  0.19478713  0.02747698     0.11000
H942        H  0.44529485  0.20803577  0.06076540     0.13000
C943        C  0.71208850  0.47469001  0.87823584     0.19100
C944        C  0.69569167  0.47774638  0.89426751    -0.19000
C945        C  0.66668437  0.45900320  0.89482724    -0.11300
C946        C  0.65349830  0.43688626  0.87923324     0.21300
C947        C  0.66971032  0.43429646  0.86274973    -0.20600
C948        C  0.69868967  0.45323093  0.86202303    -0.11500
C949        C  0.62321414  0.41539447  0.88086123    -0.15600
C950        C  0.60433563  0.42195582  0.88652895    -0.29500
C951        C  0.74312707  0.49266387  0.88008101    -0.03800
C952        C  0.75948204  0.48270795  0.87513346    -0.40300
H953        H  0.70549007  0.49395891  0.90700441     0.12500
H954        H  0.65475782  0.46116610  0.90802921     0.12100
H955        H  0.65993804  0.41748617  0.85051130     0.11500
H956        H  0.71057377  0.45072106  0.84900467     0.11800
H957        H  0.61629548  0.39380241  0.87706949     0.14500
H958        H  0.61091895  0.44377675  0.88855185     0.13300
H959        H  0.75227466  0.51259620  0.88877356     0.11000
H960        H  0.75003570  0.46161193  0.86858583     0.13000
C961        C  0.62038012  0.26928975  0.87494094     0.19100
C962        C  0.59346764  0.25554556  0.86485970    -0.19000
C963        C  0.57680751  0.26737186  0.86580323    -0.11300
C964        C  0.58683965  0.29305652  0.87686328     0.21300
C965        C  0.61410947  0.30713614  0.88591777    -0.20600
C966        C  0.63059338  0.29544843  0.88498139    -0.11500
C967        C  0.56909566  0.30466297  0.88197155    -0.15600
C968        C  0.54515733  0.29860005  0.87127233    -0.29500
C969        C  0.63730262  0.25614345  0.87803951    -0.03800
C970        C  0.63412938  0.23418922  0.86632432    -0.40300
H971        H  0.58465242  0.23510241  0.85733791     0.12500
H972        H  0.55570783  0.25572779  0.85897419     0.12100
H973        H  0.62241068  0.32691878  0.89455582     0.11500
H974        H  0.65113966  0.30651029  0.89293098     0.11800
H975        H  0.57658379  0.31962357  0.89580059     0.14500
H976        H  0.53772064  0.28539737  0.85636363     0.13300
H977        H  0.65306197  0.26483428  0.89145185     0.11000
H978        H  0.61957693  0.22564655  0.85213177     0.13000
C979        C  0.61145333  0.63191906  0.11626018     0.19100
C980        C  0.62473232  0.62607552  0.13379013    -0.19000
C981        C  0.63743002  0.61091172  0.12955041    -0.11300
C982        C  0.63649030  0.60063094  0.10771564     0.21300
C983        C  0.62347584  0.60676366  0.09007223    -0.20600
C984        C  0.61140387  0.62263605  0.09421265    -0.11500
C985        C  0.64579803  0.58071687  0.10381490    -0.15600
C986        C  0.66732871  0.58197731  0.11527246    -0.29500
C987        C  0.59454604  0.64413479  0.12205745    -0.03800
C988        C  0.59285352  0.66297198  0.10900214    -0.40300
H989        H  0.62458993  0.63261424  0.15097194     0.12500
H990        H  0.64654204  0.60589457  0.14367057     0.12100
H991        H  0.62206012  0.59867520  0.07319792     0.11500
H992        H  0.60067592  0.62626659  0.08050093     0.11800
H993        H  0.63375040  0.56381205  0.09187380     0.14500
H994        H  0.68055477  0.59978131  0.12610433     0.13300
H995        H  0.58301201  0.63727200  0.13788333     0.11000
H996        H  0.60591915  0.67174471  0.09407775     0.13000
C997        C  0.77592386  0.55300130  0.02543913     0.19100
C998        C  0.80217611  0.55620289  0.02233222    -0.19000
C999        C  0.81104136  0.55448872  0.00067888    -0.11300
C1000       C  0.79343485  0.54880799  0.98173528     0.21300
C1001       C  0.76769638  0.54686620  0.98468902    -0.20600
C1002       C  0.75914256  0.54932294  0.00631616    -0.11500
C1003       C  0.79965895  0.54086300  0.95964881    -0.15600
C1004       C  0.82578336  0.55190152  0.95162354    -0.29500
C1005       C  0.76424715  0.54757656  0.04865011    -0.03800
C1006       C  0.74598121  0.55434531  0.05592104    -0.40300
H1007       H  0.81523067  0.55856646  0.03686481     0.12500
H1008       H  0.83072644  0.55552709  0.99905805     0.12100
H1009       H  0.75366041  0.54223078  0.97037171     0.11500
H1010       H  0.73850543  0.54610278  0.00825676     0.11800
H1011       H  0.78202893  0.52491422  0.94978552     0.14500
H1012       H  0.84343993  0.56958340  0.96009454     0.13300
H1013       H  0.76954323  0.53553376  0.05987131     0.11000
H1014       H  0.74174538  0.56807237  0.04595656     0.13000
C1015       C  0.56095316  0.44306021  0.98331921     0.19100
C1016       C  0.58682673  0.46821914  0.98560760    -0.19000
C1017       C  0.59784928  0.47872879  0.00702932    -0.11300
C1018       C  0.58353822  0.46375017  0.02664238     0.21300
C1019       C  0.55638434  0.44005523  0.02441124    -0.20600
C1020       C  0.54511026  0.42967959  0.00282524    -0.11500
C1021       C  0.59796208  0.47072928  0.04905251    -0.15600
C1022       C  0.62533612  0.47958515  0.05046682    -0.29500
C1023       C  0.55407681  0.42886381  0.96116016    -0.03800
C1024       C  0.52803673  0.41131026  0.95323090    -0.40300
H1025       H  0.59927429  0.47895699  0.97078076     0.12500
H1026       H  0.61832342  0.49775431  0.00819722     0.12100
H1027       H  0.54483554  0.42838121  0.03930185     0.11500
H1028       H  0.52518116  0.41005307  0.00151108     0.11800
H1029       H  0.58569339  0.46600324  0.06438963     0.14500
H1030       H  0.63691343  0.48220921  0.03506717     0.13300
H1031       H  0.57174515  0.43231636  0.95108287     0.11000
H1032       H  0.50983572  0.40894442  0.96165635     0.13000
C1033       C  0.53918735  0.31490023  0.12663151     0.19100
C1034       C  0.53225464  0.33323332  0.11664378    -0.19000
C1035       C  0.54868493  0.36198904  0.12079509    -0.11300
C1036       C  0.57289315  0.37295425  0.13432399     0.21300
C1037       C  0.57929911  0.35456889  0.14505509    -0.20600
C1038       C  0.56241665  0.32570901  0.14140962    -0.11500
C1039       C  0.59265813  0.40363626  0.13493809    -0.15600
C1040       C  0.61973334  0.41477340  0.12973114    -0.29500
C1041       C  0.52468489  0.28557204  0.11874580    -0.03800
C1042       C  0.52051911  0.26406314  0.13194446    -0.40300
H1043       H  0.51463146  0.32537504  0.10501137     0.12500
H1044       H  0.54350802  0.37586049  0.11227431     0.12100
H1045       H  0.59789071  0.36264315  0.15559752     0.11500
H1046       H  0.56859710  0.31213259  0.14897079     0.11800
H1047       H  0.58419468  0.41707571  0.13553963     0.14500
H1048       H  0.62730333  0.40098596  0.12621719     0.13300
H1049       H  0.51823500  0.28177878  0.10101668     0.11000
H1050       H  0.52483210  0.26695108  0.15004808     0.13000
C1051       C  0.80142500  0.43416754  0.12861310     0.19100
C1052       C  0.81257899  0.46297069  0.12571550    -0.19000
C1053       C  0.79553926  0.47409111  0.12806541    -0.11300
C1054       C  0.76703028  0.45652519  0.13371615     0.21300
C1055       C  0.75652119  0.42808995  0.13807869    -0.20600
C1056       C  0.77347097  0.41704006  0.13568944    -0.11500
C1057       C  0.74663563  0.46576957  0.13274147    -0.15600
C1058       C  0.75328041  0.49248653  0.13070164    -0.29500
C1059       C  0.81887480  0.42224916  0.12335838    -0.03800
C1060       C  0.80743555  0.39622822  0.11502508    -0.40300
H1061       H  0.83415824  0.47666430  0.12056043     0.12500
H1062       H  0.80453603  0.49607561  0.12440308     0.12100
H1063       H  0.73476250  0.41409075  0.14266672     0.11500
H1064       H  0.76443485  0.39494950  0.13903542     0.11800
H1065       H  0.72459690  0.44920973  0.13225897     0.14500
H1066       H  0.77486531  0.50978372  0.13194826     0.13300
H1067       H  0.84149664  0.43558421  0.12502859     0.11000
H1068       H  0.78498057  0.38350616  0.11208447     0.13000
C1069       C  0.66371916  0.15752088  0.77221400     0.19100
C1070       C  0.63967733  0.14943005  0.75900226    -0.19000
C1071       C  0.64046771  0.14865911  0.73528864    -0.11300
C1072       C  0.66550232  0.15607875  0.72408808     0.21300
C1073       C  0.68932887  0.16334190  0.73731988    -0.20600
C1074       C  0.68852327  0.16404818  0.76103823    -0.11500
C1075       C  0.66761407  0.15607998  0.69882195    -0.15600
C1076       C  0.64906616  0.15658268  0.68440926    -0.29500
C1077       C  0.66179386  0.15838456  0.79746432    -0.03800
C1078       C  0.68429217  0.17206345  0.81129097    -0.40300
H1079       H  0.62015478  0.14379291  0.76706404     0.12500
H1080       H  0.62126624  0.14189881  0.72597645     0.12100
H1081       H  0.70876310  0.16865881  0.72926184     0.11500
H1082       H  0.70735197  0.16939130  0.77038194     0.11800
H1083       H  0.68571979  0.15670106  0.69182618     0.14500
H1084       H  0.63142867  0.15712546  0.69089756     0.13300
H1085       H  0.64104328  0.14817041  0.80485918     0.11000
H1086       H  0.70518517  0.18336756  0.80426042     0.13000
C1087       C  0.85530540  0.33944291  0.22463208     0.19100
C1088       C  0.85385678  0.36089842  0.23545268    -0.19000
C1089       C  0.85140736  0.36099180  0.25912022    -0.11300
C1090       C  0.85022324  0.33960442  0.27265503     0.21300
C1091       C  0.85221139  0.31858739  0.26190082    -0.20600
C1092       C  0.85460369  0.31844975  0.23829033    -0.11500
C1093       C  0.84757644  0.33851553  0.29792959    -0.15600
C1094       C  0.83975989  0.35341812  0.31013221    -0.29500
C1095       C  0.85732810  0.33774014  0.19938896    -0.03800
C1096       C  0.85847184  0.35652404  0.18428523    -0.40300
H1097       H  0.85453567  0.37775563  0.22596122     0.12500
H1098       H  0.85075790  0.37806205  0.26662193     0.12100
H1099       H  0.85166136  0.30196746  0.27180988     0.11500
H1100       H  0.85580994  0.30170965  0.23065288     0.11800
H1101       H  0.85184964  0.32418716  0.30693927     0.14500
H1102       H  0.83478570  0.36753005  0.30176896     0.13300
H1103       H  0.85772309  0.31995391  0.19290691     0.11000
H1104       H  0.85820397  0.37457478  0.19001195     0.13000
C1105       C  0.78706241  0.26181769  0.48323554     0.19100
C1106       C  0.79086613  0.26849114  0.50641592    -0.19000
C1107       C  0.77245296  0.24935595  0.52262981    -0.11300
C1108       C  0.74942488  0.22323228  0.51594375     0.21300
C1109       C  0.74594849  0.21630163  0.49283746    -0.20600
C1110       C  0.76469216  0.23520517  0.47666592    -0.11500
C1111       C  0.72675800  0.20487425  0.53217416    -0.15600
C1112       C  0.73141656  0.20257851  0.55435815    -0.29500
C1113       C  0.80372033  0.28434789  0.46623824    -0.03800
C1114       C  0.80787760  0.27948505  0.44473063    -0.40300
H1115       H  0.80754239  0.28900868  0.51191685     0.12500
H1116       H  0.77528977  0.25574078  0.54020436     0.12100
H1117       H  0.72810501  0.19654926  0.48719635     0.11500
H1118       H  0.76050127  0.22957294  0.45893947     0.11800
H1119       H  0.70532749  0.19418702  0.52580851     0.14500
H1120       H  0.75280023  0.21209251  0.56059807     0.13300
H1121       H  0.81083038  0.30565367  0.47119203     0.11000
H1122       H  0.80201057  0.25853429  0.43978717     0.13000
C1123       C  0.87455311  0.54136347  0.77570110     0.19100
C1124       C  0.88221452  0.52688570  0.76126703    -0.19000
C1125       C  0.87806815  0.52663249  0.73772706    -0.11300
C1126       C  0.86622117  0.54106960  0.72791902     0.21300
C1127       C  0.85972313  0.55658530  0.74228057    -0.20600
C1128       C  0.86375563  0.55672909  0.76583941    -0.11500
C1129       C  0.86104223  0.54108473  0.70289106    -0.15600
C1130       C  0.85876815  0.52140423  0.68859387    -0.29500
C1131       C  0.87795644  0.53981730  0.80083160    -0.03800
C1132       C  0.86171944  0.54248500  0.81590984    -0.40300
H1133       H  0.89105242  0.51530320  0.76827508     0.12500
H1134       H  0.88449764  0.51531983  0.72736550     0.12100
H1135       H  0.85118525  0.56843896  0.73526503     0.11500
H1136       H  0.85856578  0.56907504  0.77619773     0.11800
H1137       H  0.85832979  0.55754565  0.69609922     0.14500
H1138       H  0.86028910  0.50418378  0.69518023     0.13300
H1139       H  0.89273992  0.53431597  0.80699339     0.11000
H1140       H  0.84568837  0.54621364  0.80976361     0.13000
C1141       C  0.85852598  0.43792291  0.47594239     0.19100
C1142       C  0.85581788  0.46098538  0.47955200    -0.19000
C1143       C  0.85937607  0.47218048  0.50130182    -0.11300
C1144       C  0.86476339  0.45980682  0.51988795     0.21300
C1145       C  0.86853187  0.43744301  0.51612562    -0.20600
C1146       C  0.86591112  0.42686110  0.49426971    -0.11500
C1147       C  0.86078897  0.46601367  0.54334638    -0.15600
C1148       C  0.86995589  0.49189571  0.55099349    -0.29500
C1149       C  0.84908883  0.42284265  0.45410817    -0.03800
C1150       C  0.86200027  0.41140948  0.44408581    -0.40300
H1151       H  0.84975522  0.46955734  0.46569382     0.12500
H1152       H  0.85568850  0.48899470  0.50385463     0.12100
H1153       H  0.87218012  0.42729688  0.53029447     0.11500
H1154       H  0.86751842  0.40869147  0.49201743     0.11800
H1155       H  0.84827509  0.44815605  0.55448200     0.14500
H1156       H  0.88423792  0.51026706  0.54100290     0.13300
H1157       H  0.83028440  0.42039004  0.44631524     0.11000
H1158       H  0.88206869  0.41561309  0.45047791     0.13000
C1159       C  0.75302743  0.31128649  0.61971342     0.19100
C1160       C  0.77628019  0.33139642  0.60735226    -0.19000
C1161       C  0.78680918  0.35982695  0.61029934    -0.11300
C1162       C  0.77392102  0.36866827  0.62545637     0.21300
C1163       C  0.75086392  0.34856542  0.63806560    -0.20600
C1164       C  0.74064335  0.32005218  0.63542833    -0.11500
C1165       C  0.78250726  0.39844748  0.62643968    -0.15600
C1166       C  0.80923133  0.41920342  0.62345766    -0.29500
C1167       C  0.73973858  0.28159543  0.61339338    -0.03800
C1168       C  0.72554611  0.26016128  0.62795525    -0.40300
H1169       H  0.78576389  0.32503571  0.59484655     0.12500
H1170       H  0.80407943  0.37474066  0.59978823     0.12100
H1171       H  0.74037852  0.35492026  0.64955514     0.11500
H1172       H  0.72215172  0.30490853  0.64470062     0.11800
H1173       H  0.76637033  0.40329289  0.62870824     0.14500
H1174       H  0.82553767  0.41439259  0.62255489     0.13300
H1175       H  0.74107243  0.27722439  0.59568795     0.11000
H1176       H  0.72567469  0.26387549  0.64600345     0.13000
C1177       C  0.48928179  0.15242162  0.27084296     0.19100
C1178       C  0.51055533  0.15312567  0.25802611    -0.19000
C1179       C  0.51061261  0.15507786  0.23430709    -0.11300
C1180       C  0.48931699  0.15653057  0.22274917     0.21300
C1181       C  0.46800265  0.15568061  0.23555407    -0.20600
C1182       C  0.46794873  0.15375320  0.25922272    -0.11500
C1183       C  0.48798732  0.15855668  0.19753117    -0.15600
C1184       C  0.50864231  0.16337791  0.18325424    -0.29500
C1185       C  0.49066151  0.15091842  0.29612798    -0.03800
C1186       C  0.47066866  0.14816041  0.31026494    -0.40300
H1187       H  0.52726696  0.15212355  0.26640933     0.12500
H1188       H  0.52726791  0.15516622  0.22530986     0.12100
H1189       H  0.45129741  0.15671607  0.22719623     0.11500
H1190       H  0.45120868  0.15364105  0.26806361     0.11800
H1191       H  0.46904591  0.15641754  0.19036412     0.14500
H1192       H  0.52815318  0.16631785  0.18966564     0.13300
H1193       H  0.50923229  0.15240497  0.30347285     0.11000
H1194       H  0.45169520  0.14631476  0.30373605     0.13000
C1195       C  0.57642605  0.13348339  0.51139507     0.19100
C1196       C  0.58351090  0.13603841  0.48840168    -0.19000
C1197       C  0.56435336  0.13319577  0.47166828    -0.11300
C1198       C  0.53821484  0.12867358  0.47781966     0.21300
C1199       C  0.53071930  0.12508993  0.50072474    -0.20600
C1200       C  0.54949619  0.12698504  0.51741399    -0.11500
C1201       C  0.52172879  0.13386400  0.46117746    -0.15600
C1202       C  0.51471785  0.12190105  0.44068011    -0.29500
C1203       C  0.59859397  0.14237739  0.52882303    -0.03800
C1204       C  0.59372070  0.13030040  0.54939034    -0.40300
H1205       H  0.60431819  0.14150131  0.48346789     0.12500
H1206       H  0.57080135  0.13680274  0.45408352     0.12100
H1207       H  0.51089444  0.12223167  0.50574886     0.11500
H1208       H  0.54377556  0.12561812  0.53506548     0.11800
H1209       H  0.51771404  0.15024846  0.46515215     0.14500
H1210       H  0.51702561  0.10438966  0.43686487     0.13300
H1211       H  0.61913857  0.16058366  0.52505506     0.11000
H1212       H  0.57400340  0.11093000  0.55282846     0.13000
C1213       C  0.68871366  0.24639564  0.37717785     0.19100
C1214       C  0.66840802  0.22248152  0.38887396    -0.19000
C1215       C  0.63995833  0.21253660  0.38597747    -0.11300
C1216       C  0.63122118  0.22673573  0.37166711     0.21300
C1217       C  0.65150105  0.25047893  0.35969392    -0.20600
C1218       C  0.68004021  0.26005112  0.36217239    -0.11500
C1219       C  0.60139138  0.21853250  0.37106291    -0.15600
C1220       C  0.58049373  0.19155811  0.37223861    -0.29500
C1221       C  0.71852327  0.25911520  0.38375125    -0.03800
C1222       C  0.74004553  0.27302543  0.36931858    -0.40300
H1223       H  0.67464921  0.21198520  0.40085720     0.12500
H1224       H  0.62492042  0.19462260  0.39593325     0.12100
H1225       H  0.64528219  0.26196119  0.34882958     0.11500
H1226       H  0.69533764  0.27902453  0.35342814     0.11800
H1227       H  0.59666946  0.23492275  0.37072028     0.14500
H1228       H  0.58540453  0.17534314  0.37115341     0.13300
H1229       H  0.72290747  0.25782851  0.40159471     0.11000
H1230       H  0.73616253  0.27296644  0.35121431     0.13000
C1231       C  0.49446799  0.34647088  0.77657244     0.19100
C1232       C  0.47218595  0.32526695  0.76387274    -0.19000
C1233       C  0.47297872  0.32544794  0.74016872    -0.11300
C1234       C  0.49633977  0.34693061  0.72845765     0.21300
C1235       C  0.51870143  0.36807571  0.74120294    -0.20600
C1236       C  0.51788898  0.36787865  0.76493778    -0.11500
C1237       C  0.49860567  0.34823166  0.70318014    -0.15600
C1238       C  0.47872247  0.32955758  0.68888160    -0.29500
C1239       C  0.49253765  0.34473680  0.80179479    -0.03800
C1240       C  0.50920028  0.36586783  0.81600710    -0.40300
H1241       H  0.45395116  0.30839767  0.77235011     0.12500
H1242       H  0.45519573  0.30857481  0.73139744     0.12100
H1243       H  0.53705359  0.38480702  0.73275517     0.11500
H1244       H  0.53587388  0.38428739  0.77393658     0.11800
H1245       H  0.51767449  0.36563890  0.69596050     0.14500
H1246       H  0.45925911  0.31203724  0.69521376     0.13300
H1247       H  0.47613617  0.32498515  0.80901900     0.11000
H1248       H  0.52537529  0.38610355  0.80950306     0.13000
C1249       C  0.46348610  0.21874882  0.48202935     0.19100
C1250       C  0.46396544  0.21383635  0.50540006    -0.19000
C1251       C  0.46262863  0.23141384  0.52133959    -0.11300
C1252       C  0.46158732  0.25482162  0.51422847     0.21300
C1253       C  0.46088883  0.25962377  0.49088078    -0.20600
C1254       C  0.46144569  0.24161019  0.47494067    -0.11500
C1255       C  0.46537598  0.27643370  0.53075652    -0.15600
C1256       C  0.45386350  0.26997662  0.55155953    -0.29500
C1257       C  0.46829833  0.20185974  0.46545856    -0.03800
C1258       C  0.45712504  0.19616419  0.44438220    -0.40300
H1259       H  0.46599426  0.19669563  0.51133566     0.12500
H1260       H  0.46401086  0.22758874  0.53921346     0.12100
H1261       H  0.46063700  0.27778613  0.48496316     0.11500
H1262       H  0.46182109  0.24651496  0.45708777     0.11800
H1263       H  0.47962055  0.29825671  0.52614985     0.14500
H1264       H  0.43863979  0.24822351  0.55570934     0.13300
H1265       H  0.48221574  0.19479411  0.47054982     0.11000
H1266       H  0.44217912  0.20206603  0.43970544     0.13000
C1267       C  0.69491928  0.44711846  0.63856275     0.19100
C1268       C  0.67750465  0.41801502  0.64103076    -0.19000
C1269       C  0.64841001  0.40516993  0.64200448    -0.11300
C1270       C  0.63583902  0.42110458  0.63965584     0.21300
C1271       C  0.65341336  0.45046822  0.63883362    -0.20600
C1272       C  0.68270976  0.46340972  0.63830958    -0.11500
C1273       C  0.60485089  0.40777632  0.63642031    -0.15600
C1274       C  0.58821680  0.38131889  0.62890117    -0.29500
C1275       C  0.72481239  0.45899282  0.63278893    -0.03800
C1276       C  0.74617852  0.48479386  0.63840900    -0.40300
H1277       H  0.68643518  0.40503014  0.64148896     0.12500
H1278       H  0.63600054  0.38267147  0.64395472     0.12100
H1279       H  0.64443995  0.46336210  0.63736023     0.11500
H1280       H  0.69559977  0.48590997  0.63619764     0.11800
H1281       H  0.59598054  0.42073943  0.63829084     0.14500
H1282       H  0.59702977  0.36856600  0.62586810     0.13300
H1283       H  0.72937392  0.44562654  0.62299977     0.11000
H1284       H  0.74280009  0.49785455  0.64965565     0.13000
C1285       C  0.56411543  0.21260114  0.62555118     0.19100
C1286       C  0.53538314  0.20034903  0.62070063    -0.19000
C1287       C  0.52284614  0.21629123  0.62173792    -0.11300
C1288       C  0.53897169  0.24473791  0.62764627     0.21300
C1289       C  0.56710083  0.25637172  0.63388460    -0.20600
C1290       C  0.57943370  0.24044552  0.63323166    -0.11500
C1291       C  0.52892543  0.26404198  0.62376661    -0.15600
C1292       C  0.50282952  0.25815932  0.62778197    -0.29500
C1293       C  0.57799552  0.19657042  0.62157222    -0.03800
C1294       C  0.60539807  0.20953720  0.61631245    -0.40300
H1295       H  0.52297752  0.17885201  0.61502560     0.12500
H1296       H  0.50116211  0.20692322  0.61654294     0.12100
H1297       H  0.57987558  0.27822310  0.63859932     0.11500
H1298       H  0.60120173  0.25033835  0.63824968     0.11800
H1299       H  0.54427470  0.28465229  0.61708141     0.14500
H1300       H  0.48754085  0.23887711  0.63628793     0.13300
H1301       H  0.56517911  0.17384083  0.62148490     0.11000
H1302       H  0.61781841  0.23218245  0.61484765     0.13000
C1303       C  0.66200958  0.52182827  0.22646955     0.19100
C1304       C  0.63729585  0.50604730  0.23895964    -0.19000
C1305       C  0.63759044  0.50799818  0.26263846    -0.11300
C1306       C  0.66278062  0.52597435  0.27448237     0.21300
C1307       C  0.68735415  0.54226769  0.26186303    -0.20600
C1308       C  0.68703580  0.54030117  0.23819338    -0.11500
C1309       C  0.66445748  0.52875159  0.29976504    -0.15600
C1310       C  0.64384853  0.51096944  0.31387743    -0.29500
C1311       C  0.66079621  0.51915626  0.20127656    -0.03800
C1312       C  0.68305593  0.52460578  0.18881937    -0.40300
H1313       H  0.61764834  0.49199851  0.23035716     0.12500
H1314       H  0.61788222  0.49558061  0.27132694     0.12100
H1315       H  0.70697779  0.55661850  0.27036561     0.11500
H1316       H  0.70636794  0.55365033  0.22918073     0.11800
H1317       H  0.68385284  0.54566019  0.30710193     0.14500
H1318       H  0.62465234  0.49330493  0.30717859     0.13300
H1319       H  0.64076089  0.51162483  0.19283119     0.11000
H1320       H  0.70276944  0.53066640  0.19718540     0.13000
C1321       C  0.77627927  0.53908102  0.51960318     0.19100
C1322       C  0.78252865  0.53961708  0.49651875    -0.19000
C1323       C  0.76427279  0.53849480  0.47950419    -0.11300
C1324       C  0.73889296  0.53622571  0.48516248     0.21300
C1325       C  0.73297734  0.53643895  0.50825634    -0.20600
C1326       C  0.75155113  0.53814754  0.52529185    -0.11500
C1327       C  0.71682533  0.52994944  0.46763074    -0.15600
C1328       C  0.72240935  0.53811368  0.44568285    -0.29500
C1329       C  0.79363965  0.53531729  0.53701782    -0.03800
C1330       C  0.79676301  0.54369953  0.55883276    -0.40300
H1331       H  0.80118986  0.53991645  0.49161869     0.12500
H1332       H  0.76931841  0.53769428  0.46198820     0.12100
H1333       H  0.71345377  0.53435927  0.51315696     0.11500
H1334       H  0.74566522  0.53701048  0.54286479     0.11800
H1335       H  0.69509220  0.51718740  0.47289564     0.14500
H1336       H  0.74397861  0.55220352  0.44050440     0.13300
H1337       H  0.80345705  0.52407915  0.53170884     0.11000
H1338       H  0.78846646  0.55630526  0.56415797     0.13000
C1339       C  0.55280319  0.42962515  0.52643805     0.19100
C1340       C  0.57759932  0.45533133  0.52217731    -0.19000
C1341       C  0.58435891  0.46597682  0.50004809    -0.11300
C1342       C  0.56674359  0.45052761  0.48181899     0.21300
C1343       C  0.54137956  0.42544462  0.48625039    -0.20600
C1344       C  0.53424027  0.41524167  0.50841469    -0.11500
C1345       C  0.57693321  0.45690146  0.45823779    -0.15600
C1346       C  0.59394465  0.48289399  0.45002578    -0.29500
C1347       C  0.54866842  0.41582703  0.54876307    -0.03800
C1348       C  0.52347958  0.40100164  0.55858710    -0.40300
H1349       H  0.59231064  0.46652534  0.53583845     0.12500
H1350       H  0.60437883  0.48503542  0.49703606     0.12100
H1351       H  0.52777650  0.41298711  0.47239594     0.11500
H1352       H  0.51527527  0.39506169  0.51121034     0.11800
H1353       H  0.57177560  0.43911825  0.44757703     0.14500
H1354       H  0.59790761  0.50113963  0.45941511     0.13300
H1355       H  0.56667437  0.41683879  0.55684708     0.11000
H1356       H  0.50581214  0.40166966  0.55172146     0.13000
C1357       C  0.53285539  0.30216790  0.37459389     0.19100
C1358       C  0.52731820  0.31953290  0.38738052    -0.19000
C1359       C  0.54434627  0.34865555  0.38553916    -0.11300
C1360       C  0.56774518  0.36108946  0.37115154     0.21300
C1361       C  0.57273916  0.34368295  0.35776392    -0.20600
C1362       C  0.55524747  0.31444423  0.35924608    -0.11500
C1363       C  0.58898824  0.39166785  0.37210585    -0.15600
C1364       C  0.58255874  0.41078527  0.37751695    -0.29500
C1365       C  0.51833791  0.27205579  0.38065407    -0.03800
C1366       C  0.51082893  0.25123048  0.36577646    -0.40300
H1367       H  0.51045107  0.31051106  0.39958501     0.12500
H1368       H  0.54019745  0.36127829  0.39655014     0.12100
H1369       H  0.59079745  0.35272187  0.34675410     0.11500
H1370       H  0.56037783  0.30151911  0.34958560     0.11800
H1371       H  0.61074250  0.39848639  0.36910893     0.14500
H1372       H  0.56075055  0.40449717  0.37903159     0.13300
H1373       H  0.51403613  0.26684564  0.39856328     0.11000
H1374       H  0.51263048  0.25534504  0.34763995     0.13000
C1375       C  0.72787881  0.44346607  0.36692909     0.19100
C1376       C  0.71622242  0.41446450  0.36664564    -0.19000
C1377       C  0.73337667  0.40347372  0.36577966    -0.11300
C1378       C  0.76280128  0.42135412  0.36591335     0.21300
C1379       C  0.77437134  0.45040712  0.36476295    -0.20600
C1380       C  0.75710976  0.46141727  0.36527195    -0.11500
C1381       C  0.78194218  0.41060785  0.36851238    -0.15600
C1382       C  0.77336818  0.38507902  0.37714080    -0.29500
C1383       C  0.70935797  0.45400021  0.37214207    -0.03800
C1384       C  0.71450672  0.47942674  0.36608880    -0.40300
H1385       H  0.69373159  0.40021753  0.36772367     0.12500
H1386       H  0.72331447  0.38096681  0.36549071     0.12100
H1387       H  0.79689184  0.46467832  0.36457423     0.11500
H1388       H  0.76678753  0.48390990  0.36575776     0.11800
H1389       H  0.80403140  0.42476528  0.36483008     0.14500
H1390       H  0.75166001  0.37104058  0.38180545     0.13300
H1391       H  0.69079745  0.44024858  0.38210250     0.11000
H1392       H  0.73153112  0.49280332  0.35467020     0.13000
C1393       C  0.51774322  0.67119751  0.22824516     0.19100
C1394       C  0.49239207  0.65838557  0.24022113    -0.19000
C1395       C  0.49216088  0.66040055  0.26386816    -0.11300
C1396       C  0.51742824  0.67519305  0.27624505     0.21300
C1397       C  0.54278251  0.68822672  0.26431653    -0.20600
C1398       C  0.54303500  0.68612288  0.24066299    -0.11500
C1399       C  0.51821729  0.67783491  0.30145093    -0.15600
C1400       C  0.49757383  0.65912035  0.31513650    -0.29500
C1401       C  0.51657113  0.66814211  0.20299925    -0.03800
C1402       C  0.53856298  0.68301551  0.18904151    -0.40300
H1403       H  0.47256596  0.64687042  0.23120586     0.12500
H1404       H  0.47213050  0.65070479  0.27227552     0.12100
H1405       H  0.56256111  0.69979162  0.27339127     0.11500
H1406       H  0.56314093  0.69597806  0.23241733     0.11800
H1407       H  0.53717948  0.69501253  0.30908533     0.14500
H1408       H  0.47925202  0.64085469  0.30793252     0.13300
H1409       H  0.49627285  0.65341473  0.19546059     0.11000
H1410       H  0.55894127  0.69858848  0.19578960     0.13000
C1411       C  0.62966671  0.61237481  0.38372138     0.19100
C1412       C  0.62840868  0.63002612  0.36729148    -0.19000
C1413       C  0.61260068  0.64230356  0.37105533    -0.11300
C1414       C  0.59702180  0.63635163  0.39106052     0.21300
C1415       C  0.59940948  0.61983113  0.40789158    -0.20600
C1416       C  0.61589008  0.60831615  0.40443832    -0.11500
C1417       C  0.57420620  0.64218071  0.39289058    -0.15600
C1418       C  0.57577875  0.66579123  0.38565552    -0.29500
C1419       C  0.64021339  0.59404557  0.37737577    -0.03800
C1420       C  0.65318139  0.58576389  0.39194895    -0.40300
H1421       H  0.63849227  0.63313915  0.35105064     0.12500
H1422       H  0.61071463  0.65448120  0.35758935     0.12100
H1423       H  0.58728702  0.61460725  0.42330105     0.11500
H1424       H  0.61588524  0.59431834  0.41720661     0.11800
H1425       H  0.55462378  0.62561255  0.40019019     0.14500
H1426       H  0.59558044  0.68368537  0.38002210     0.13300
H1427       H  0.63502681  0.58521493  0.36042300     0.11000
H1428       H  0.66042327  0.59575070  0.40836524     0.13000
C1429       C  0.35185598  0.86774695  0.28000248     0.19100
C1430       C  0.37747565  0.87992351  0.26847389    -0.19000
C1431       C  0.37831748  0.88055183  0.24466176    -0.11300
C1432       C  0.35340403  0.86897596  0.23169727     0.21300
C1433       C  0.32792807  0.85778398  0.24323057    -0.20600
C1434       C  0.32708567  0.85715742  0.26698602    -0.11500
C1435       C  0.35286981  0.86826256  0.20628519    -0.15600
C1436       C  0.37385192  0.87073113  0.19358270    -0.29500
C1437       C  0.35183632  0.86697429  0.30545712    -0.03800
C1438       C  0.32895529  0.84940181  0.31776505    -0.40300
H1439       H  0.39696246  0.88879283  0.27794113     0.12500
H1440       H  0.39856118  0.89035115  0.23661475     0.12100
H1441       H  0.30844740  0.84920848  0.23379668     0.11500
H1442       H  0.30692405  0.84863761  0.27493007     0.11800
H1443       H  0.33381977  0.86414938  0.19774672     0.14500
H1444       H  0.39264627  0.87375938  0.20173026     0.13300
H1445       H  0.37147057  0.88073580  0.31430934     0.11000
H1446       H  0.30952800  0.83465162  0.30917447     0.13000
C1447       C  0.37714771  0.02517059  0.37738345     0.19100
C1448       C  0.37216294  0.01208396  0.39877433    -0.19000
C1449       C  0.35637623  0.98270385  0.40058202    -0.11300
C1450       C  0.34507229  0.96595554  0.38105420     0.21300
C1451       C  0.34830546  0.97921019  0.36003100    -0.20600
C1452       C  0.36450872  0.00841689  0.35817541    -0.11500
C1453       C  0.33213431  0.93494740  0.38155951    -0.15600
C1454       C  0.34246371  0.92290333  0.39493740    -0.29500
C1455       C  0.39882260  0.05532401  0.37387691    -0.03800
C1456       C  0.40530011  0.07618880  0.38855715    -0.40300
H1457       H  0.38188536  0.02438928  0.41386703     0.12500
H1458       H  0.35379185  0.97312167  0.41713534     0.12100
H1459       H  0.33976948  0.96689915  0.34475581     0.11500
H1460       H  0.36812852  0.01795285  0.34148986     0.11800
H1461       H  0.31709712  0.92253883  0.36835023     0.14500
H1462       H  0.35935333  0.93589407  0.40671678     0.13300
H1463       H  0.41054741  0.06053629  0.35816664     0.11000
H1464       H  0.39271285  0.07226840  0.40356911     0.13000
C1465       C  0.42789010  0.73773842  0.38889898     0.19100
C1466       C  0.43823458  0.76369235  0.37782305    -0.19000
C1467       C  0.42350406  0.77760538  0.37899789    -0.11300
C1468       C  0.39828969  0.76572236  0.39128993     0.21300
C1469       C  0.38790841  0.73957716  0.40171343    -0.20600
C1470       C  0.40239114  0.72581884  0.40049670    -0.11500
C1471       C  0.38271030  0.78001576  0.39528495    -0.15600
C1472       C  0.38460855  0.80117478  0.38280596    -0.29500
C1473       C  0.44350089  0.72311885  0.39108613    -0.03800
C1474       C  0.46553146  0.72738191  0.37867980    -0.40300
H1475       H  0.45805149  0.77371786  0.36904251     0.12500
H1476       H  0.43240495  0.79796604  0.37104255     0.12100
H1477       H  0.36861675  0.72986350  0.41128367     0.11500
H1478       H  0.39385766  0.70591701  0.40923914     0.11800
H1479       H  0.36795742  0.77185203  0.40925522     0.14500
H1480       H  0.39820427  0.80924175  0.36814976     0.13300
H1481       H  0.43585876  0.70713474  0.40429394     0.11000
H1482       H  0.47312769  0.74183655  0.36441265     0.13000
C1483       C  0.16167804  0.49700214  0.23259483     0.19100
C1484       C  0.15051407  0.50897883  0.24620417    -0.19000
C1485       C  0.14642728  0.50293136  0.26941138    -0.11300
C1486       C  0.15396158  0.48508076  0.27972114     0.21300
C1487       C  0.16498184  0.47295637  0.26609353    -0.20600
C1488       C  0.16901656  0.47896211  0.24283835    -0.11500
C1489       C  0.15068428  0.47875061  0.30452899    -0.15600
C1490       C  0.15018258  0.49608315  0.31974104    -0.29500
C1491       C  0.16545322  0.50402014  0.20793114    -0.03800
C1492       C  0.16687678  0.48763092  0.19229726    -0.40300
H1493       H  0.14455881  0.52281497  0.23878443     0.12500
H1494       H  0.13697784  0.51202372  0.27903883     0.12100
H1495       H  0.17097240  0.45916281  0.27354770     0.11500
H1496       H  0.17837079  0.46981860  0.23315786     0.11800
H1497       H  0.15012164  0.46012519  0.31052284     0.14500
H1498       H  0.15242996  0.51557782  0.31410295     0.13300
H1499       H  0.16567115  0.52260580  0.20233662     0.11000
H1500       H  0.16523186  0.46823800  0.19737622     0.13000
C1501       C  0.95955822  0.36683694  0.38472130     0.19100
C1502       C  0.97660602  0.36761191  0.40270583    -0.19000
C1503       C  0.00593713  0.38252889  0.40043217    -0.11300
C1504       C  0.01852758  0.39662621  0.37999597     0.21300
C1505       C  0.00123880  0.39403417  0.36162438    -0.20600
C1506       C  0.97216850  0.37916739  0.36386168    -0.11500
C1507       C  0.04915387  0.41716251  0.37783733    -0.15600
C1508       C  0.06942204  0.41721745  0.39033406    -0.29500
C1509       C  0.92902663  0.35503804  0.38806825    -0.03800
C1510       C  0.91702129  0.36834219  0.37908309    -0.40300
H1511       H  0.96737244  0.35806928  0.41888423     0.12500
H1512       H  0.01865230  0.38432988  0.41502215     0.12100
H1513       H  0.01033169  0.40445701  0.34564691     0.11500
H1514       H  0.95956753  0.37813637  0.34941573     0.11800
H1515       H  0.05532589  0.43364022  0.36522122     0.14500
H1516       H  0.06438652  0.40012562  0.40198490     0.13300
H1517       H  0.91693969  0.33660505  0.39868707     0.11000
H1518       H  0.93019046  0.38795639  0.37004908     0.13000
C1519       C  0.24234984  0.69266679  0.37158599     0.19100
C1520       C  0.25305567  0.67609558  0.36545883    -0.19000
C1521       C  0.23674705  0.64696595  0.36743671    -0.11300
C1522       C  0.20933687  0.63365777  0.37595996     0.21300
C1523       C  0.19796060  0.65003786  0.38076130    -0.20600
C1524       C  0.21432078  0.67929752  0.37874718    -0.11500
C1525       C  0.19259258  0.60300638  0.38074285    -0.15600
C1526       C  0.20460797  0.58839635  0.38633438    -0.29500
C1527       C  0.26223686  0.72346396  0.37308303    -0.03800
C1528       C  0.25493523  0.74267743  0.37471472    -0.40300
H1529       H  0.27449569  0.68579910  0.35975833     0.12500
H1530       H  0.24589839  0.63503193  0.36262253     0.12100
H1531       H  0.17678930  0.64027515  0.38711203     0.11500
H1532       H  0.20537925  0.69128597  0.38393291     0.11800
H1533       H  0.16990747  0.59263322  0.38118998     0.14500
H1534       H  0.22726528  0.59888778  0.38720993     0.13300
H1535       H  0.28433960  0.73053868  0.37417672     0.11000
H1536       H  0.23328752  0.73674599  0.37256751     0.13000
C1537       C  0.35463357  0.55697174  0.38140761     0.19100
C1538       C  0.33823969  0.56447537  0.36864277    -0.19000
C1539       C  0.30906639  0.54944702  0.37103223    -0.11300
C1540       C  0.29589521  0.52687906  0.38640051     0.21300
C1541       C  0.31217270  0.51864453  0.39828401    -0.20600
C1542       C  0.34122731  0.53325422  0.39550870    -0.11500
C1543       C  0.26607641  0.51408126  0.39257935    -0.15600
C1544       C  0.24592663  0.51020757  0.37780132    -0.29500
C1545       C  0.38569704  0.57464357  0.38181429    -0.03800
C1546       C  0.39923779  0.60275392  0.38200697    -0.40300
H1547       H  0.34801957  0.58239846  0.35731279     0.12500
H1548       H  0.29707108  0.55648692  0.36186421     0.12100
H1549       H  0.30245437  0.50137339  0.41026663     0.11500
H1550       H  0.35341584  0.52701335  0.40542018     0.11800
H1551       H  0.26055728  0.50780916  0.41019784     0.14500
H1552       H  0.25042720  0.51413439  0.35980853     0.13300
H1553       H  0.39734848  0.56452877  0.38520519     0.11000
H1554       H  0.38734388  0.61288985  0.38061272     0.13000
C1555       C  0.52895132  0.85379956  0.77479057     0.19100
C1556       C  0.55140381  0.86556765  0.75951485    -0.19000
C1557       C  0.54654470  0.86417529  0.73602982    -0.11300
C1558       C  0.51897199  0.85063591  0.72734586     0.21300
C1559       C  0.49659249  0.83830869  0.74263313    -0.20600
C1560       C  0.50143137  0.83961075  0.76600643    -0.11500
C1561       C  0.51234773  0.84976854  0.70271366    -0.15600
C1562       C  0.53021261  0.85417805  0.68585449    -0.29500
C1563       C  0.53479737  0.85646746  0.79968824    -0.03800
C1564       C  0.51650208  0.85519815  0.81492066    -0.40300
H1565       H  0.57279487  0.87642599  0.76578770     0.12500
H1566       H  0.56443605  0.87435411  0.72490239     0.12100
H1567       H  0.47515973  0.82755596  0.73645524     0.11500
H1568       H  0.48345459  0.82922330  0.77703857     0.11800
H1569       H  0.49132115  0.84459609  0.69825862     0.14500
H1570       H  0.55089453  0.85806113  0.68961608     0.13300
H1571       H  0.55498977  0.86046741  0.80555380     0.11000
H1572       H  0.49688588  0.85266403  0.80919676     0.13000
C1573       C  0.59999138  0.97742564  0.61332196     0.19100
C1574       C  0.61763356  0.99681489  0.62977470    -0.19000
C1575       C  0.62868719  0.02546873  0.62654791    -0.11300
C1576       C  0.62157315  0.03505481  0.60705657     0.21300
C1577       C  0.60480300  0.01581621  0.59024235    -0.20600
C1578       C  0.59441261  0.98727020  0.59316344    -0.11500
C1579       C  0.62760654  0.06399058  0.60568372    -0.15600
C1580       C  0.65222571  0.08653982  0.61194592    -0.29500
C1581       C  0.58374021  0.94725073  0.61923129    -0.03800
C1582       C  0.57442123  0.92664083  0.60387656    -0.40300
H1583       H  0.62183096  0.98964482  0.64559167     0.12500
H1584       H  0.64109726  0.03984803  0.63998173     0.12100
H1585       H  0.59879560  0.02277883  0.57524048     0.11500
H1586       H  0.58032055  0.97279709  0.58042753     0.11800
H1587       H  0.61088316  0.06676332  0.59958210     0.14500
H1588       H  0.66995782  0.08454694  0.61619618     0.13300
H1589       H  0.57763503  0.94181980  0.63687120     0.11000
H1590       H  0.58190057  0.93123304  0.58652781     0.13000
C1591       C  0.53095695  0.78522426  0.52075137     0.19100
C1592       C  0.55425778  0.78723051  0.51021312    -0.19000
C1593       C  0.55055015  0.76882744  0.49264621    -0.11300
C1594       C  0.52340190  0.74763626  0.48588692     0.21300
C1595       C  0.50027148  0.74566761  0.49655289    -0.20600
C1596       C  0.50393796  0.76428187  0.51360737    -0.11500
C1597       C  0.51778760  0.72621040  0.46863305    -0.15600
C1598       C  0.53350211  0.73080913  0.45010245    -0.29500
C1599       C  0.53452750  0.80296055  0.54060986    -0.03800
C1600       C  0.51660948  0.81149362  0.54427423    -0.40300
H1601       H  0.57527646  0.80289501  0.51568801     0.12500
H1602       H  0.56879284  0.77057510  0.48495543     0.12100
H1603       H  0.47914876  0.72943353  0.49177411     0.11500
H1604       H  0.48550856  0.76151256  0.52181777     0.11800
H1605       H  0.49778094  0.70649027  0.46997557     0.14500
H1606       H  0.55238145  0.75114488  0.44729406     0.13300
H1607       H  0.55044203  0.80687563  0.55322071     0.11000
H1608       H  0.50159318  0.80838675  0.53104188     0.13000
C1609       C  0.42766092  0.86646481  0.53293751     0.19100
C1610       C  0.39908029  0.85226110  0.52752607    -0.19000
C1611       C  0.39007770  0.85475674  0.50602478    -0.11300
C1612       C  0.40954177  0.87169240  0.48922867     0.21300
C1613       C  0.43818664  0.88683241  0.49490387    -0.20600
C1614       C  0.44723321  0.88440169  0.51663113    -0.11500
C1615       C  0.40050566  0.87065127  0.46518696    -0.15600
C1616       C  0.37408172  0.86286645  0.45984057    -0.29500
C1617       C  0.43596121  0.85847276  0.55426656    -0.03800
C1618       C  0.46070914  0.87416661  0.56498848    -0.40300
H1619       H  0.38363027  0.83801995  0.53966979     0.12500
H1620       H  0.36790517  0.84179196  0.50235612     0.12100
H1621       H  0.45362811  0.89967814  0.48224000     0.11500
H1622       H  0.46950219  0.89517062  0.52009246     0.11800
H1623       H  0.41485676  0.87331008  0.45180928     0.14500
H1624       H  0.35988970  0.86077122  0.47311714     0.13300
H1625       H  0.42093785  0.83787185  0.56114707     0.11000
H1626       H  0.47551312  0.89549497  0.55951533     0.13000
C1627       C  0.15771219  0.66216998  0.77752878     0.19100
C1628       C  0.14588683  0.63879909  0.76317983    -0.19000
C1629       C  0.14524095  0.64184458  0.73956172    -0.11300
C1630       C  0.15656543  0.66855242  0.72954941     0.21300
C1631       C  0.16837492  0.69192084  0.74392296    -0.20600
C1632       C  0.16900901  0.68886680  0.76753628    -0.11500
C1633       C  0.15795791  0.67331187  0.70437360    -0.15600
C1634       C  0.14462905  0.65288467  0.68877404    -0.29500
C1635       C  0.15882406  0.65780774  0.80257205    -0.03800
C1636       C  0.16318089  0.67687909  0.81839738    -0.40300
H1637       H  0.13725298  0.61799596  0.77027802     0.12500
H1638       H  0.13641563  0.62317614  0.72939174     0.12100
H1639       H  0.17755603  0.71279219  0.73681986     0.11500
H1640       H  0.17904610  0.70760917  0.77770497     0.11800
H1641       H  0.17093101  0.69479207  0.69839614     0.14500
H1642       H  0.13095739  0.63130968  0.69407461     0.13300
H1643       H  0.15529231  0.63773719  0.80822358     0.11000
H1644       H  0.16552638  0.69657543  0.81328774     0.13000
C1645       C  0.97165855  0.61249922  0.60394101     0.19100
C1646       C  0.98821258  0.61006692  0.58766739    -0.19000
C1647       C  0.01737537  0.62479158  0.58990846    -0.11300
C1648       C  0.03076563  0.64173543  0.60896912     0.21300
C1649       C  0.01437907  0.64590632  0.62436416    -0.20600
C1650       C  0.98502334  0.63136968  0.62191577    -0.11500
C1651       C  0.06126443  0.65364402  0.61377625    -0.15600
C1652       C  0.07429445  0.64057005  0.60699243    -0.29500
C1653       C  0.94121809  0.59090945  0.60421297    -0.03800
C1654       C  0.92046583  0.59462508  0.61071679    -0.40300
H1655       H  0.97841288  0.59568345  0.57365269     0.12500
H1656       H  0.02923839  0.62202182  0.57704051     0.12100
H1657       H  0.02411314  0.65910363  0.63903983     0.11500
H1658       H  0.97274070  0.63330438  0.63493117     0.11800
H1659       H  0.07249112  0.67201257  0.62447518     0.14500
H1660       H  0.06245007  0.62117131  0.59760226     0.13300
H1661       H  0.93566462  0.56995234  0.59943445     0.11000
H1662       H  0.92447751  0.61538654  0.61394920     0.13000
C1663       C  0.12661767  0.55466206  0.48064161     0.19100
C1664       C  0.13104095  0.58158256  0.48094167    -0.19000
C1665       C  0.12976843  0.59326189  0.50125481    -0.11300
C1666       C  0.12496958  0.57849408  0.52183367     0.21300
C1667       C  0.11827422  0.55067455  0.52124273    -0.20600
C1668       C  0.11908678  0.53878336  0.50077818    -0.11500
C1669       C  0.12922477  0.59223292  0.54414794    -0.15600
C1670       C  0.14695103  0.61996171  0.54678251    -0.29500
C1671       C  0.13446242  0.54573427  0.46011003    -0.03800
C1672       C  0.12256405  0.51902792  0.45359060    -0.40300
H1673       H  0.13659405  0.59403652  0.46553127     0.12500
H1674       H  0.13358790  0.61421835  0.50079986     0.12100
H1675       H  0.11415962  0.53873987  0.53681616     0.11500
H1676       H  0.11585245  0.51803428  0.50103630     0.11800
H1677       H  0.11994488  0.57902080  0.55904237     0.14500
H1678       H  0.15754252  0.63327078  0.53223838     0.13300
H1679       H  0.15148080  0.56209741  0.45004549     0.11000
H1680       H  0.10394263  0.50231554  0.46186087     0.13000
C1681       C  0.22879391  0.78174759  0.48146567     0.19100
C1682       C  0.20373029  0.75650006  0.48648402    -0.19000
C1683       C  0.19554884  0.74828425  0.50901609    -0.11300
C1684       C  0.21270624  0.76491484  0.52702605     0.21300
C1685       C  0.23702186  0.79084059  0.52199219    -0.20600
C1686       C  0.24484109  0.79937750  0.49944862    -0.11500
C1687       C  0.20874607  0.75344716  0.55050136    -0.15600
C1688       C  0.18367938  0.73484255  0.55969241    -0.29500
C1689       C  0.24032693  0.78642626  0.45814309    -0.03800
C1690       C  0.25753842  0.81181386  0.44871711    -0.40300
H1691       H  0.19121215  0.74237104  0.47294229     0.12500
H1692       H  0.17704120  0.72791436  0.51226948     0.12100
H1693       H  0.25080144  0.80384792  0.53555338     0.11500
H1694       H  0.26458422  0.81865190  0.49620247     0.11800
H1695       H  0.22767343  0.75927799  0.56013865     0.14500
H1696       H  0.16440165  0.73011660  0.55122799     0.13300
H1697       H  0.23577566  0.76789657  0.44882284     0.11000
H1698       H  0.26086793  0.83059807  0.45678263     0.13000
C1699       C  0.36185515  0.79260404  0.64622533     0.19100
C1700       C  0.34496437  0.80160385  0.63646487    -0.19000
C1701       C  0.31565757  0.78408803  0.63648257    -0.11300
C1702       C  0.30273614  0.75726448  0.64642706     0.21300
C1703       C  0.31957074  0.74907572  0.65742675    -0.20600
C1704       C  0.34874071  0.76661290  0.65759337    -0.11500
C1705       C  0.27261234  0.73579826  0.64278819    -0.15600
C1706       C  0.25244037  0.74132007  0.63829006    -0.29500
C1707       C  0.39277599  0.80964538  0.64264442    -0.03800
C1708       C  0.40828185  0.79786309  0.64149024    -0.40300
H1709       H  0.35447463  0.82155902  0.62770690     0.12500
H1710       H  0.30336993  0.79091524  0.62750377     0.12100
H1711       H  0.31013339  0.72856377  0.66528222     0.11500
H1712       H  0.36089662  0.75932848  0.66610774     0.11800
H1713       H  0.26705737  0.71411312  0.64268978     0.14500
H1714       H  0.25679211  0.76249490  0.63960915     0.13300
H1715       H  0.40222091  0.83148012  0.63787751     0.11000
H1716       H  0.39855037  0.77557641  0.64427445     0.13000
C1717       C  0.35777959  0.49686309  0.77548553     0.19100
C1718       C  0.37608063  0.51748623  0.76007347    -0.19000
C1719       C  0.37096246  0.51388149  0.73668655    -0.11300
C1720       C  0.34714085  0.48946837  0.72808184     0.21300
C1721       C  0.32955744  0.46832052  0.74344095    -0.20600
C1722       C  0.33480333  0.47181968  0.76679561    -0.11500
C1723       C  0.34004347  0.48496709  0.70337178    -0.15600
C1724       C  0.35154455  0.50563180  0.68778419    -0.29500
C1725       C  0.36337919  0.50228804  0.80032314    -0.03800
C1726       C  0.34392045  0.48747093  0.81616095    -0.40300
H1727       H  0.39429350  0.53667808  0.76616092     0.12500
H1728       H  0.38592568  0.53031437  0.72560974     0.12100
H1729       H  0.31147294  0.44901669  0.73735895     0.11500
H1730       H  0.32076567  0.45464628  0.77776073     0.11800
H1731       H  0.32440609  0.46391767  0.69785562     0.14500
H1732       H  0.36679338  0.52691852  0.69280571     0.13300
H1733       H  0.38380497  0.51957500  0.80569510     0.11000
H1734       H  0.32315369  0.47066965  0.81120103     0.13000
C1735       C  0.37940077  0.41338304  0.62769246     0.19100
C1736       C  0.39837091  0.41703434  0.64495995    -0.19000
C1737       C  0.41087058  0.40129952  0.64552853    -0.11300
C1738       C  0.40520308  0.38153167  0.62867025     0.21300
C1739       C  0.38536587  0.37692508  0.61161438    -0.20600
C1740       C  0.37244414  0.39270999  0.61119179    -0.11500
C1741       C  0.42252882  0.36854453  0.62928366    -0.15600
C1742       C  0.42101439  0.34892536  0.61525532    -0.29500
C1743       C  0.37028090  0.43388316  0.62670871    -0.03800
C1744       C  0.34625649  0.42981050  0.61756155    -0.40300
H1745       H  0.40416971  0.43276137  0.65788219     0.12500
H1746       H  0.42591436  0.40539049  0.65893701     0.12100
H1747       H  0.38050244  0.36198074  0.59826063     0.11500
H1748       H  0.35814500  0.38966001  0.59746267     0.11800
H1749       H  0.43879318  0.37672863  0.64230630     0.14500
H1750       H  0.40463031  0.33903137  0.60247078     0.13300
H1751       H  0.38428154  0.45369995  0.63509072     0.11000
H1752       H  0.33091592  0.40979671  0.61014971     0.13000
C1753       C  0.23628487  0.44949545  0.52344181     0.19100
C1754       C  0.24095731  0.44804396  0.50029717    -0.19000
C1755       C  0.22225714  0.44690509  0.48377350    -0.11300
C1756       C  0.19861198  0.44769541  0.49004748     0.21300
C1757       C  0.19329802  0.44793171  0.51324673    -0.20600
C1758       C  0.21176481  0.44857274  0.52980208    -0.11500
C1759       C  0.18224248  0.45321889  0.47300952    -0.15600
C1760       C  0.17988343  0.44621703  0.45092794    -0.29500
C1761       C  0.25943648  0.45688511  0.53995202    -0.03800
C1762       C  0.25571818  0.45110884  0.56236393    -0.40300
H1763       H  0.25988298  0.44916940  0.49491656     0.12500
H1764       H  0.22753686  0.44750226  0.46610443     0.12100
H1765       H  0.17550482  0.44898901  0.51854944     0.11500
H1766       H  0.20782057  0.45040080  0.54742229     0.11800
H1767       H  0.17392434  0.46575077  0.47855432     0.14500
H1768       H  0.18678257  0.43252997  0.44532352     0.13300
H1769       H  0.28066967  0.46950756  0.53350812     0.11000
H1770       H  0.23477710  0.43728342  0.56897425     0.13000
C1771       C  0.43929540  0.56477362  0.47825633     0.19100
C1772       C  0.41141480  0.54259257  0.48028511    -0.19000
C1773       C  0.40140763  0.52860311  0.50089150    -0.11300
C1774       C  0.41891284  0.53708478  0.52016763     0.21300
C1775       C  0.44753990  0.55739602  0.51767440    -0.20600
C1776       C  0.45773836  0.57126176  0.49678325    -0.11500
C1777       C  0.40649156  0.52816183  0.54314289    -0.15600
C1778       C  0.38288367  0.52774121  0.54764818    -0.29500
C1779       C  0.44662722  0.58327536  0.45813031    -0.03800
C1780       C  0.47214726  0.59815584  0.44871891    -0.40300
H1781       H  0.39689177  0.53708602  0.46618948     0.12500
H1782       H  0.37941766  0.51241677  0.50215517     0.12100
H1783       H  0.46145060  0.56413360  0.53227197     0.11500
H1784       H  0.47933561  0.58844758  0.49570422     0.11800
H1785       H  0.41811322  0.52548419  0.55673771     0.14500
H1786       H  0.37332783  0.53347593  0.53426347     0.13300
H1787       H  0.42964329  0.58463298  0.45051942     0.11000
H1788       H  0.48909565  0.59562196  0.45450328     0.13000
C1789       C  0.44726077  0.70173247  0.63260857     0.19100
C1790       C  0.41921124  0.68419716  0.63895272    -0.19000
C1791       C  0.40667617  0.65523226  0.63903435    -0.11300
C1792       C  0.42180519  0.64316904  0.63209787     0.21300
C1793       C  0.45054841  0.66073523  0.62763559    -0.20600
C1794       C  0.46324899  0.68988676  0.62782222    -0.11500
C1795       C  0.40767128  0.61266933  0.62780398    -0.15600
C1796       C  0.38058485  0.59727926  0.62133084    -0.29500
C1797       C  0.45750577  0.73143112  0.62779287    -0.03800
C1798       C  0.48449053  0.75240500  0.62861126    -0.40300
H1799       H  0.40661066  0.69292139  0.64297349     0.12500
H1800       H  0.38486865  0.64240893  0.64377760     0.12100
H1801       H  0.46275359  0.65191813  0.62261807     0.11500
H1802       H  0.48490445  0.70291275  0.62269310     0.11800
H1803       H  0.42022844  0.60319495  0.62821395     0.14500
H1804       H  0.36818542  0.60682502  0.61978454     0.13300
H1805       H  0.44176906  0.73620551  0.62278708     0.11000
H1806       H  0.50059138  0.74910579  0.63535886     0.13000
C1807       C  0.21841855  0.58061724  0.63957404     0.19100
C1808       C  0.20539728  0.55170589  0.64393818    -0.19000
C1809       C  0.22045776  0.53826728  0.64180943    -0.11300
C1810       C  0.24876119  0.55367409  0.63528744     0.21300
C1811       C  0.26207899  0.58272623  0.63248639    -0.20600
C1812       C  0.24732345  0.59610213  0.63498479    -0.11500
C1813       C  0.26418897  0.54035113  0.62797614    -0.15600
C1814       C  0.26257234  0.51758828  0.63743781    -0.29500
C1815       C  0.20156604  0.59414781  0.63829165    -0.03800
C1816       C  0.20865439  0.61548675  0.62368966    -0.40300
H1817       H  0.18325629  0.53929512  0.64779595     0.12500
H1818       H  0.20960231  0.51576174  0.64388318     0.12100
H1819       H  0.28392956  0.59509794  0.62765664     0.11500
H1820       H  0.25853674  0.61857178  0.63261376     0.11800
H1821       H  0.27888681  0.55094302  0.61418412     0.14500
H1822       H  0.25001287  0.50778212  0.65245222     0.13300
H1823       H  0.18231513  0.58528642  0.64791375     0.11000
H1824       H  0.22662199  0.62249964  0.61278291     0.13000
loop_ 
_geom_bond_atom_site_label_1 
_geom_bond_atom_site_label_2 
_geom_bond_distance 
_geom_bond_site_symmetry_2 
_ccdc_geom_bond_type 
O1          Cr19   1.990       .  S
O1            C9   1.262       .  A
O2          Cr19   1.970       .  S
O2            C3   1.260       .  A
C3            O4   1.271       .  A
C3         C1762   1.484       .  S
O4          Cr20   2.033       .  S
O5          Cr20   2.003       .  S
O5            C6   1.266       .  A
C6            O7   1.267       .  A
C6         C1744   1.492       .  S
O7          Cr21   2.001       .  S
O8          Cr21   1.991       .  S
O8            C9   1.262       .  A
C9         C1778   1.469       .  S
O10         Cr19   1.969       .  S
O10          C18   1.257       .  A
O11         Cr19   1.992       .  S
O11          C12   1.262       .  A
C12          O13   1.264       .  A
C12        C1814   1.487       .  S
O13         Cr20   2.006       .  S
O14         Cr20   2.028       .  S
O14          C15   1.270       .  A
C15          O16   1.257       .  A
C15        C1724   1.477       .  S
O16         Cr21   1.967       .  S
O17         Cr21   2.009       .  S
O17          C18   1.265       .  A
C18        C1796   1.470       .  S
Cr19         O22   1.764       .  S
Cr20         O22   1.778       .  S
Cr21         O22   1.774       .  S
O23         Cr41   1.964       .  S
O23          C31   1.260       .  A
O24         Cr41   2.003       .  S
O24          C25   1.260       .  A
C25          O26   1.261       .  A
C25        C1688   1.483       .  S
O26         Cr42   2.005       .  S
O27         Cr42   2.027       .  S
O27          C28   1.268       .  A
C28          O29   1.257       .  A
C28        C1652   1.483       .  S
O29         Cr43   1.971       .  S
O30         Cr43   2.020       .  S
O30          C31   1.271       .  A
C31        C1670   1.470       .  S
O32         Cr41   1.993       .  S
O32          C40   1.260       .  A
O33         Cr41   1.961       .  S
O33          C34   1.261       .  A
C34          O35   1.274       .  A
C34        C1706   1.481       .  S
O35         Cr42   2.040       .  S
O36         Cr42   1.988       .  S
O36          C37   1.265       .  A
C37          O38   1.269       .  A
C37        C1634   1.487       .  S
O38         Cr43   2.012       .  S
O39         Cr43   2.001       .  S
O39          C40   1.261       .  A
C40        C1816   1.479       .  S
Cr41         O44   1.767       .  S
Cr42         O44   1.778       .  S
Cr43         O44   1.774       .  S
O45         Cr63   2.005       .  S
O45          C53   1.267       .  A
O46         Cr63   1.968       .  S
O46          C47   1.257       .  A
C47          O48   1.269       .  A
C47        C1600   1.478       .  S
O48         Cr64   2.027       .  S
O49         Cr64   1.989       .  S
O49          C50   1.261       .  A
C50          O51   1.265       .  A
C50        C1582   1.474       .  S
O51         Cr65   2.005       .  S
O52         Cr65   1.986       .  S
O52          C53   1.261       .  A
C53        C1618   1.477       .  S
O54         Cr63   1.969       .  S
O54          C62   1.255       .  A
O55         Cr63   1.994       .  S
O55          C56   1.265       .  A
C56          O57   1.260       .  A
C56        C1798   1.472       .  S
O57         Cr64   1.981       .  S
O58         Cr64   2.023       .  S
O58          C59   1.271       .  A
C59          O60   1.265       .  A
C59        C1562   1.480       .  S
O60         Cr65   1.976       .  S
O61         Cr65   2.029       .  S
O61          C62   1.267       .  A
C62        C1708   1.476       .  S
Cr63         O66   1.758       .  S
Cr64         O66   1.773       .  S
Cr65         O66   1.770       .  S
O67         Cr85   2.005       .  S
O67          C75   1.266       .  A
O68         Cr85   1.975       .  S
O68          C69   1.261       .  A
C69          O70   1.271       .  A
C69        C1760   1.484       .  S
O70         Cr86   2.029       .  S
O71         Cr86   1.994       .  S
O71          C72   1.262       .  A
C72          O73   1.266       .  A
C72        C1508   1.484       .  S
O73         Cr87   2.006       .  S
O74         Cr87   1.980       .  S
O74          C75   1.258       .  A
C75        C1672   1.467       .  S
O76         Cr85   1.974       .  S
O76          C84   1.259       .  A
O77         Cr85   2.007       .  S
O77          C78   1.265       .  A
C78          O79   1.260       .  A
C78        C1544   1.476       .  S
O79         Cr86   1.988       .  S
O80         Cr86   2.028       .  S
O80          C81   1.271       .  A
C81          O82   1.257       .  A
C81        C1490   1.476       .  S
O82         Cr87   1.962       .  S
O83         Cr87   2.019       .  S
O83          C84   1.268       .  A
C84        C1526   1.477       .  S
Cr85         O88   1.765       .  S
Cr86         O88   1.769       .  S
Cr87         O88   1.768       .  S
O89        Cr107   1.956       .  S
O89          C97   1.257       .  A
O90        Cr107   2.007       .  S
O90          C91   1.262       .  A
C91          O92   1.261       .  A
C91        C1690   1.482       .  S
O92        Cr108   2.002       .  S
O93        Cr108   2.032       .  S
O93          C94   1.269       .  A
C94          O95   1.256       .  A
C94        C1454   1.483       .  S
O95        Cr109   1.970       .  S
O96        Cr109   2.038       .  S
O96          C97   1.273       .  A
C97        C1616   1.469       .  S
O98        Cr107   2.009       .  S
O98         C106   1.265       .  A
O99        Cr107   1.960       .  S
O99         C100   1.261       .  A
C100        O101   1.275       .  A
C100       C1528   1.482       .  S
O101       Cr108   2.043       .  S
O102       Cr108   1.971       .  S
O102        C103   1.261       .  A
C103        O104   1.273       .  A
C103       C1438   1.485       .  S
O104       Cr109   2.033       .  S
O105       Cr109   1.989       .  S
O105        C106   1.258       .  A
C106       C1472   1.488       .  S
Cr107       O110   1.762       .  S
Cr108       O110   1.771       .  S
Cr109       O110   1.772       .  S
O111       Cr129   2.002       .  S
O111        C119   1.264       .  A
O112       Cr129   1.968       .  S
O112        C113   1.262       .  A
C113        O114   1.271       .  A
C113       C1598   1.483       .  S
O114       Cr130   2.030       .  S
O115       Cr130   2.000       .  S
O115        C116   1.265       .  A
C116        O117   1.265       .  A
C116       C1418   1.484       .  S
O117       Cr131   1.997       .  S
O118       Cr131   1.991       .  S
O118        C119   1.258       .  A
C119       C1780   1.478       .  S
O120       Cr129   1.973       .  S
O120        C128   1.258       .  A
O121       Cr129   1.987       .  S
O121        C122   1.260       .  A
C122        O123   1.264       .  A
C122       C1474   1.491       .  S
O123       Cr130   2.012       .  S
O124       Cr130   2.018       .  S
O124        C125   1.269       .  A
C125        O126   1.261       .  A
C125       C1400   1.482       .  S
O126       Cr131   1.978       .  S
O127       Cr131   2.022       .  S
O127        C128   1.268       .  A
C128       C1546   1.476       .  S
Cr129       O132   1.768       .  S
Cr130       O132   1.781       .  S
Cr131       O132   1.774       .  S
O133       Cr151   1.989       .  S
O133        C141   1.263       .  A
O134       Cr151   2.006       .  S
O134        C135   1.261       .  A
C135        O136   1.262       .  A
C135       C1420   1.483       .  S
O136       Cr152   2.003       .  S
O137       Cr152   2.023       .  S
O137        C138   1.269       .  A
C138        O139   1.262       .  A
C138       C1328   1.490       .  S
O139       Cr153   1.987       .  S
O140       Cr153   2.003       .  S
O140        C141   1.267       .  A
C141       C1346   1.471       .  S
O142       Cr151   2.014       .  S
O142        C150   1.263       .  A
O143       Cr151   1.967       .  S
O143        C144   1.261       .  A
C144        O145   1.274       .  A
C144       C1310   1.480       .  S
O145       Cr152   2.032       .  S
O146       Cr152   1.987       .  S
O146        C147   1.261       .  A
C147        O148   1.264       .  A
C147       C1384   1.477       .  S
O148       Cr153   1.991       .  S
O149       Cr153   1.986       .  S
O149        C150   1.259       .  A
C150       C1364   1.479       .  S
Cr151       O154   1.774       .  S
Cr152       O154   1.773       .  S
Cr153       O154   1.768       .  S
O155       Cr173   1.978       .  S
O155        C163   1.258       .  A
O156       Cr173   2.001       .  S
O156        C157   1.266       .  A
C157        O158   1.266       .  A
C157       C1742   1.494       .  S
O158       Cr174   2.009       .  S
O159       Cr174   2.018       .  S
O159        C160   1.267       .  A
C160        O161   1.261       .  A
C160       C1256   1.485       .  S
O161       Cr175   1.982       .  S
O162       Cr175   2.011       .  S
O162        C163   1.266       .  A
C163       C1348   1.469       .  S
O164       Cr173   2.029       .  S
O164        C172   1.267       .  A
O165       Cr173   1.977       .  S
O165        C166   1.263       .  A
C166        O167   1.269       .  A
C166       C1238   1.479       .  S
O167       Cr174   2.018       .  S
O168       Cr174   1.995       .  S
O168        C169   1.265       .  A
C169        O170   1.265       .  A
C169       C1292   1.479       .  S
O170       Cr175   1.994       .  S
O171       Cr175   1.968       .  S
O171        C172   1.255       .  A
C172       C1274   1.480       .  S
Cr173       O176   1.774       .  S
Cr174       O176   1.776       .  S
Cr175       O176   1.769       .  S
O177       Cr195   1.980       .  S
O177        C185   1.263       .  A
O178       Cr195   2.004       .  S
O178        C179   1.265       .  A
C179        O180   1.266       .  A
C179       C1456   1.488       .  S
O180       Cr196   2.007       .  S
O181       Cr196   2.014       .  S
O181        C182   1.265       .  A
C182        O183   1.261       .  A
C182       C1258   1.486       .  S
O183       Cr197   1.987       .  S
O184       Cr197   1.995       .  S
O184        C185   1.267       .  A
C185       C1202   1.469       .  S
O186       Cr195   1.994       .  S
O186        C194   1.259       .  A
O187       Cr195   1.981       .  S
O187        C188   1.261       .  A
C188        O189   1.266       .  A
C188       C1186   1.478       .  S
O189       Cr196   2.013       .  S
O190       Cr196   1.998       .  S
O190        C191   1.264       .  A
C191        O192   1.265       .  A
C191       C1366   1.479       .  S
O192       Cr197   1.998       .  S
O193       Cr197   1.993       .  S
O193        C194   1.261       .  A
C194       C1220   1.476       .  S
Cr195       O198   1.779       .  S
Cr196       O198   1.773       .  S
Cr197       O198   1.773       .  S
O199       Cr217   1.992       .  S
O199        C207   1.262       .  A
O200       Cr217   1.980       .  S
O200        C201   1.258       .  A
C201        O202   1.265       .  A
C201       C1654   1.484       .  S
O202       Cr218   2.012       .  S
O203       Cr218   2.033       .  S
O203        C204   1.272       .  A
C204        O205   1.261       .  A
C204       C1330   1.492       .  S
O205       Cr219   1.978       .  S
O206       Cr219   2.006       .  S
O206        C207   1.266       .  A
C207       C1148   1.474       .  S
O208       Cr217   1.999       .  S
O208        C216   1.260       .  A
O209       Cr217   1.977       .  S
O209        C210   1.263       .  A
C210        O211   1.274       .  A
C210       C1130   1.487       .  S
O211       Cr218   2.035       .  S
O212       Cr218   1.997       .  S
O212        C213   1.263       .  A
C213        O214   1.263       .  A
C213       C1276   1.484       .  S
O214       Cr219   1.992       .  S
O215       Cr219   1.982       .  S
O215        C216   1.259       .  A
C216       C1166   1.470       .  S
Cr217       O220   1.774       .  S
Cr218       O220   1.781       .  S
Cr219       O220   1.773       .  S
O221       Cr239   1.987       .  S
O221        C229   1.259       .  A
O222       Cr239   2.002       .  S
O222        C223   1.268       .  A
C223        O224   1.268       .  A
C223       C1510   1.478       .  S
O224       Cr240   2.000       .  S
O225       Cr240   2.030       .  S
O225        C226   1.270       .  A
C226        O227   1.260       .  A
C226       C1114   1.484       .  S
O227       Cr241   1.974       .  S
O228       Cr241   2.007       .  S
O228        C229   1.264       .  A
C229       C1150   1.474       .  S
O230       Cr239   2.025       .  S
O230        C238   1.269       .  A
O231       Cr239   1.988       .  S
O231        C232   1.262       .  A
C232        O233   1.267       .  A
C232       C1094   1.486       .  S
O233       Cr240   2.016       .  S
O234       Cr240   1.995       .  S
O234        C235   1.262       .  A
C235        O236   1.264       .  A
C235       C1222   1.478       .  S
O236       Cr241   2.002       .  S
O237       Cr241   1.961       .  S
O237        C238   1.256       .  A
C238       C1382   1.475       .  S
Cr239       O242   1.767       .  S
Cr240       O242   1.773       .  S
Cr241       O242   1.770       .  S
O243       Cr261   1.974       .  S
O243        C251   1.257       .  A
O244       Cr261   2.009       .  S
O244        C245   1.270       .  A
C245        O246   1.263       .  A
C245       C1580   1.474       .  S
O246       Cr262   1.979       .  S
O247       Cr262   2.031       .  S
O247        C248   1.270       .  A
C248        O249   1.259       .  A
C248       C1112   1.485       .  S
O249       Cr263   1.975       .  S
O250       Cr263   1.998       .  S
O250        C251   1.264       .  A
C251       C1204   1.470       .  S
O252       Cr261   2.022       .  S
O252        C260   1.267       .  A
O253       Cr261   1.976       .  S
O253        C254   1.257       .  A
C254        O255   1.266       .  A
C254       C1076   1.481       .  S
O255       Cr262   2.018       .  S
O256       Cr262   1.984       .  S
O256        C257   1.260       .  A
C257        O258   1.265       .  A
C257       C1168   1.471       .  S
O258       Cr263   2.001       .  S
O259       Cr263   1.970       .  S
O259        C260   1.258       .  A
C260       C1294   1.478       .  S
Cr261       O264   1.775       .  S
Cr262       O264   1.779       .  S
Cr263       O264   1.769       .  S
O265       Cr283   1.962       .  S
O265        C273   1.259       .  A
O266       Cr283   2.003       .  S
O266        C267   1.264       .  A
C267        O268   1.262       .  A
C267       C1006   1.478       .  S
O268       Cr284   1.998       .  S
O269       Cr284   2.015       .  S
O269        C270   1.264       .  A
C270        O271   1.257       .  A
C270        C986   1.480       .  S
O271       Cr285   1.978       .  S
O272       Cr285   2.020       .  S
O272        C273   1.269       .  A
C273       C1022   1.470       .  S
O274       Cr283   1.994       .  S
O274        C282   1.260       .  A
O275       Cr283   1.966       .  S
O275        C276   1.259       .  A
C276        O277   1.270       .  A
C276       C1058   1.481       .  S
O277       Cr284   2.032       .  S
O278       Cr284   1.970       .  S
O278        C279   1.262       .  A
C279        O280   1.273       .  A
C279       C1312   1.479       .  S
O280       Cr285   2.026       .  S
O281       Cr285   1.981       .  S
O281        C282   1.259       .  A
C282       C1040   1.470       .  S
Cr283       O286   1.765       .  S
Cr284       O286   1.773       .  S
Cr285       O286   1.777       .  S
O287       Cr305   1.998       .  S
O287        C295   1.264       .  A
O288       Cr305   1.981       .  S
O288        C289   1.263       .  A
C289        O290   1.268       .  A
C289        C932   1.479       .  S
O290       Cr306   2.015       .  S
O291       Cr306   1.997       .  S
O291        C292   1.264       .  A
C292        O293   1.263       .  A
C292        C914   1.476       .  S
O293       Cr307   1.990       .  S
O294       Cr307   1.989       .  S
O294        C295   1.259       .  A
C295       C1024   1.472       .  S
O296       Cr305   1.982       .  S
O296        C304   1.261       .  A
O297       Cr305   1.990       .  S
O297        C298   1.262       .  A
C298        O299   1.263       .  A
C298        C968   1.486       .  S
O299       Cr306   2.002       .  S
O300       Cr306   2.005       .  S
O300        C301   1.267       .  A
C301        O302   1.262       .  A
C301       C1240   1.480       .  S
O302       Cr307   1.983       .  S
O303       Cr307   2.009       .  S
O303        C304   1.264       .  A
C304        C950   1.473       .  S
Cr305       O308   1.768       .  S
Cr306       O308   1.777       .  S
Cr307       O308   1.773       .  S
O309       Cr327   1.966       .  S
O309        C317   1.261       .  A
O310       Cr327   2.003       .  S
O310        C311   1.263       .  A
C311        O312   1.262       .  A
C311        C878   1.488       .  S
O312       Cr328   2.006       .  S
O313       Cr328   2.028       .  S
O313        C314   1.268       .  A
C314        O315   1.257       .  A
C314        C842   1.481       .  S
O315       Cr329   1.968       .  S
O316       Cr329   2.027       .  S
O316        C317   1.273       .  A
C317        C860   1.473       .  S
O318       Cr327   2.003       .  S
O318        C326   1.262       .  A
O319       Cr327   1.962       .  S
O319        C320   1.262       .  A
C320        O321   1.272       .  A
C320        C896   1.473       .  S
O321       Cr328   2.031       .  S
O322       Cr328   1.971       .  S
O322        C323   1.259       .  A
C323        O324   1.270       .  A
C323       C1078   1.482       .  S
O324       Cr329   2.023       .  S
O325       Cr329   1.992       .  S
O325        C326   1.258       .  A
C326        C970   1.487       .  S
Cr327       O330   1.764       .  S
Cr328       O330   1.778       .  S
Cr329       O330   1.773       .  S
O331       Cr349   1.964       .  S
O331        C339   1.258       .  A
O332       Cr349   2.019       .  S
O332        C333   1.266       .  A
C333        O334   1.259       .  A
C333       C1004   1.478       .  S
O334       Cr350   1.986       .  S
O335       Cr350   2.033       .  S
O335        C336   1.271       .  A
C336        O337   1.257       .  A
C336        C806   1.480       .  S
O337       Cr351   1.963       .  S
O338       Cr351   2.047       .  S
O338        C339   1.275       .  A
C339        C824   1.478       .  S
O340       Cr349   2.016       .  S
O340        C348   1.266       .  A
O341       Cr349   1.956       .  S
O341        C342   1.256       .  A
C342        O343   1.275       .  A
C342        C952   1.470       .  S
O343       Cr350   2.041       .  S
O344       Cr350   1.966       .  S
O344        C345   1.258       .  A
C345        O346   1.273       .  A
C345       C1132   1.485       .  S
O346       Cr351   2.039       .  S
O347       Cr351   1.972       .  S
O347        C348   1.254       .  A
C348        C898   1.470       .  S
Cr349       O352   1.760       .  S
Cr350       O352   1.767       .  S
Cr351       O352   1.764       .  S
O353       Cr371   1.997       .  S
O353        C361   1.263       .  A
O354       Cr371   1.963       .  S
O354        C355   1.257       .  A
C355        O356   1.271       .  A
C355        C934   1.480       .  S
O356       Cr372   2.035       .  S
O357       Cr372   1.982       .  S
O357        C358   1.263       .  A
C358        O359   1.268       .  A
C358        C770   1.475       .  S
O359       Cr373   2.005       .  S
O360       Cr373   1.982       .  S
O360        C361   1.259       .  A
C361        C862   1.475       .  S
O362       Cr371   1.971       .  S
O362        C370   1.258       .  A
O363       Cr371   2.005       .  S
O363        C364   1.264       .  A
C364        O365   1.259       .  A
C364       C1042   1.475       .  S
O365       Cr372   1.988       .  S
O366       Cr372   2.013       .  S
O366        C367   1.267       .  A
C367        O368   1.259       .  A
C367       C1184   1.481       .  S
O368       Cr373   1.978       .  S
O369       Cr373   2.011       .  S
O369        C370   1.268       .  A
C370        C790   1.472       .  S
Cr371       O374   1.767       .  S
Cr372       O374   1.776       .  S
Cr373       O374   1.771       .  S
O375       Cr393   1.993       .  S
O375        C383   1.262       .  A
O376       Cr393   1.968       .  S
O376        C377   1.260       .  A
C377        O378   1.272       .  A
C377        C880   1.489       .  S
O378       Cr394   2.043       .  S
O379       Cr394   1.980       .  S
O379        C380   1.264       .  A
C380        O381   1.270       .  A
C380        C752   1.476       .  S
O381       Cr395   2.008       .  S
O382       Cr395   1.991       .  S
O382        C383   1.259       .  A
C383        C826   1.481       .  S
O384       Cr393   1.966       .  S
O384        C392   1.258       .  A
O385       Cr393   1.992       .  S
O385        C386   1.262       .  A
C386        O387   1.259       .  A
C386        C788   1.475       .  S
O387       Cr394   1.988       .  S
O388       Cr394   2.022       .  S
O388        C389   1.267       .  A
C389        O390   1.258       .  A
C389       C1096   1.486       .  S
O390       Cr395   1.978       .  S
O391       Cr395   2.021       .  S
O391        C392   1.269       .  A
C392       C1060   1.476       .  S
Cr393       O396   1.768       .  S
Cr394       O396   1.785       .  S
Cr395       O396   1.776       .  S
O397       Cr415   1.994       .  S
O397        C405   1.264       .  A
O398       Cr415   2.003       .  S
O398        C399   1.266       .  A
C399        O400   1.265       .  A
C399        C916   1.479       .  S
O400       Cr416   1.997       .  S
O401       Cr416   2.005       .  S
O401        C402   1.262       .  A
C402        O403   1.258       .  A
C402        C680   1.473       .  S
O403       Cr417   1.976       .  S
O404       Cr417   1.989       .  S
O404        C405   1.264       .  A
C405        C700   1.475       .  S
O406       Cr415   1.999       .  S
O406        C414   1.262       .  A
O407       Cr415   1.995       .  S
O407        C408   1.264       .  A
C408        O409   1.262       .  A
C408       C1726   1.475       .  S
O409       Cr416   1.995       .  S
O410       Cr416   1.994       .  S
O410        C411   1.263       .  A
C411        O412   1.265       .  A
C411        C734   1.475       .  S
O412       Cr417   1.997       .  S
O413       Cr417   1.983       .  S
O413        C414   1.260       .  A
C414        C716   1.474       .  S
Cr415       O418   1.776       .  S
Cr416       O418   1.773       .  S
Cr417       O418   1.770       .  S
O419       Cr437   1.987       .  S
O419        C427   1.261       .  A
O420       Cr437   2.002       .  S
O420        C421   1.264       .  A
C421        O422   1.262       .  A
C421        C754   1.478       .  S
O422       Cr438   1.997       .  S
O423       Cr438   1.998       .  S
O423        C424   1.262       .  A
C424        O425   1.261       .  A
C424        C682   1.472       .  S
O425       Cr439   1.982       .  S
O426       Cr439   2.010       .  S
O426        C427   1.266       .  A
C427        C628   1.476       .  S
O428       Cr437   2.020       .  S
O428        C436   1.265       .  A
O429       Cr437   1.986       .  S
O429        C430   1.265       .  A
C430        O431   1.266       .  A
C430       C1492   1.476       .  S
O431       Cr438   2.007       .  S
O432       Cr438   1.992       .  S
O432        C433   1.264       .  A
C433        O434   1.266       .  A
C433        C662   1.478       .  S
O434       Cr439   1.994       .  S
O435       Cr439   1.971       .  S
O435        C436   1.258       .  A
C436        C644   1.482       .  S
Cr437       O440   1.772       .  S
Cr438       O440   1.772       .  S
Cr439       O440   1.767       .  S
O441       Cr459   1.991       .  S
O441        C449   1.264       .  A
O442       Cr459   2.000       .  S
O442        C443   1.261       .  A
C443        O444   1.260       .  A
C443        C808   1.482       .  S
O444       Cr460   1.998       .  S
O445       Cr460   2.019       .  S
O445        C446   1.267       .  A
C446        O447   1.261       .  A
C446        C590   1.489       .  S
O447       Cr461   1.979       .  S
O448       Cr461   2.010       .  S
O448        C449   1.268       .  A
C449        C626   1.477       .  S
O450       Cr459   2.012       .  S
O450        C458   1.262       .  A
O451       Cr459   1.989       .  S
O451        C452   1.267       .  A
C452        O453   1.273       .  A
C452       C1636   1.487       .  S
O453       Cr460   2.024       .  S
O454       Cr460   1.983       .  S
O454        C455   1.261       .  A
C455        O456   1.265       .  A
C455        C608   1.475       .  S
O456       Cr461   1.991       .  S
O457       Cr461   1.978       .  S
O457        C458   1.256       .  A
C458        C736   1.476       .  S
Cr459       O462   1.777       .  S
Cr460       O462   1.774       .  S
Cr461       O462   1.771       .  S
O463       Cr481   1.982       .  S
O463        C471   1.258       .  A
O464       Cr481   1.997       .  S
O464        C465   1.267       .  A
C465        O466   1.268       .  A
C465        C844   1.492       .  S
O466       Cr482   2.006       .  S
O467       Cr482   2.033       .  S
O467        C468   1.271       .  A
C468        O469   1.260       .  A
C468        C556   1.485       .  S
O469       Cr483   1.972       .  S
O470       Cr483   2.010       .  S
O470        C471   1.266       .  A
C471        C574   1.470       .  S
O472       Cr481   2.018       .  S
O472        C480   1.267       .  A
O473       Cr481   1.969       .  S
O473        C474   1.258       .  A
C474        O475   1.269       .  A
C474       C1564   1.477       .  S
O475       Cr482   2.024       .  S
O476       Cr482   1.992       .  S
O476        C477   1.262       .  A
C477        O478   1.264       .  A
C477        C718   1.476       .  S
O478       Cr483   2.002       .  S
O479       Cr483   1.963       .  S
O479        C480   1.255       .  A
C480        C610   1.471       .  S
Cr481       O484   1.765       .  S
Cr482       O484   1.772       .  S
Cr483       O484   1.766       .  S
O485       Cr503   1.991       .  S
O485        C493   1.263       .  A
O486       Cr503   1.995       .  S
O486        C487   1.260       .  A
C487        O488   1.260       .  A
C487        C772   1.477       .  S
O488       Cr504   2.001       .  S
O489       Cr504   2.027       .  S
O489        C490   1.269       .  A
C490        O491   1.261       .  A
C490        C592   1.490       .  S
O491       Cr505   1.974       .  S
O492       Cr505   2.007       .  S
O492        C493   1.267       .  A
C493        C572   1.474       .  S
O494       Cr503   2.008       .  S
O494        C502   1.262       .  A
O495       Cr503   1.973       .  S
O495        C496   1.263       .  A
C496        O497   1.276       .  A
C496       C1436   1.486       .  S
O497       Cr504   2.038       .  S
O498       Cr504   1.992       .  S
O498        C499   1.262       .  A
C499        O500   1.264       .  A
C499        C646   1.480       .  S
O500       Cr505   1.989       .  S
O501       Cr505   1.979       .  S
O501        C502   1.258       .  A
C502        C536   1.472       .  S
Cr503       O506   1.773       .  S
Cr504       O506   1.774       .  S
Cr505       O506   1.765       .  S
O507       Cr525   1.980       .  S
O507        C515   1.261       .  A
O508       Cr525   2.015       .  S
O508        C509   1.270       .  A
C509        O510   1.265       .  A
C509        C988   1.480       .  S
O510       Cr526   1.989       .  S
O511       Cr526   2.021       .  S
O511        C512   1.265       .  A
C512        O513   1.258       .  A
C512        C554   1.484       .  S
O513       Cr527   1.979       .  S
O514       Cr527   2.000       .  S
O514        C515   1.267       .  A
C515        C698   1.474       .  S
O516       Cr525   2.011       .  S
O516        C524   1.265       .  A
O517       Cr525   1.987       .  S
O517        C518   1.260       .  A
C518        O519   1.265       .  A
C518       C1402   1.483       .  S
O519       Cr526   2.015       .  S
O520       Cr526   1.986       .  S
O520        C521   1.262       .  A
C521        O522   1.268       .  A
C521        C538   1.474       .  S
O522       Cr527   2.005       .  S
O523       Cr527   1.972       .  S
O523        C524   1.257       .  A
C524        C664   1.476       .  S
Cr525       O528   1.776       .  S
Cr526       O528   1.773       .  S
Cr527       O528   1.767       .  S
C529        C537   1.478       .  S
C529        C530   1.401       .  A
C529        C534   1.407       .  A
C530        C531   1.395       .  A
C530        H539   1.084       .  S
C531        C532   1.406       .  A
C531        H540   1.083       .  S
C532        C535   1.481       .  S
C532        C533   1.403       .  A
C533        C534   1.400       .  A
C533        H541   1.083       .  S
C534        H542   1.083       .  S
C535        H543   1.087       .  S
C535        C536   1.343       .  D
C536        H544   1.086       .  S
C537        H545   1.088       .  S
C537        C538   1.344       .  D
C538        H546   1.086       .  S
C547        C555   1.491       .  S
C547        C548   1.404   1_556  A
C547        C552   1.408       .  A
C548        C549   1.402       .  A
C548        H557   1.083       .  S
C549        C550   1.408       .  A
C549        H558   1.082       .  S
C550        C553   1.491       .  S
C550        C551   1.404   1_554  A
C551        C552   1.403       .  A
C551        H559   1.083       .  S
C552        H560   1.082       .  S
C553        H561   1.087       .  S
C553        C554   1.348       .  D
C554        H562   1.086       .  S
C555        H563   1.087       .  S
C555        C556   1.349       .  D
C556        H564   1.086       .  S
C565        C573   1.479       .  S
C565        C566   1.403       .  A
C565        C570   1.405   1_556  A
C566        C567   1.399   1_556  A
C566        H575   1.083       .  S
C567        C568   1.405       .  A
C567        H576   1.083       .  S
C568        C571   1.479       .  S
C568        C569   1.403       .  A
C569        C570   1.398       .  A
C569        H577   1.083       .  S
C570        H578   1.083   1_554  S
C571        H579   1.088       .  S
C571        C572   1.344       .  D
C572        H580   1.086       .  S
C573        H581   1.088       .  S
C573        C574   1.342       .  D
C574        H582   1.086       .  S
C583        C591   1.492       .  S
C583        C584   1.410       .  A
C583        C588   1.403       .  A
C584        C585   1.411       .  A
C584        H593   1.082       .  S
C585        C586   1.410   1_554  A
C585        H594   1.082   1_554  S
C586        C589   1.492       .  S
C586        C587   1.402       .  A
C587        C588   1.395   1_556  A
C587        H595   1.084       .  S
C588        H596   1.084       .  S
C589        H597   1.087       .  S
C589        C590   1.349       .  D
C590        H598   1.086       .  S
C591        H599   1.087       .  S
C591        C592   1.351       .  D
C592        H600   1.085       .  S
C601        C609   1.486       .  S
C601        C602   1.403       .  A
C601        C606   1.408       .  A
C602        C603   1.401       .  A
C602        H611   1.083       .  S
C603        C604   1.407       .  A
C603        H612   1.082       .  S
C604        C607   1.479       .  S
C604        C605   1.400       .  A
C605        C606   1.395       .  A
C605        H613   1.084       .  S
C606        H614   1.082       .  S
C607        H615   1.088       .  S
C607        C608   1.344       .  D
C608        H616   1.086       .  S
C609        H617   1.087       .  S
C609        C610   1.345       .  D
C610        H618   1.085       .  S
C619        C627   1.481       .  S
C619        C620   1.403       .  A
C619        C624   1.405       .  A
C620        C621   1.401       .  A
C620        H629   1.083       .  S
C621        C622   1.406   1_554  A
C621        H630   1.083   1_554  S
C622        C625   1.482       .  S
C622        C623   1.403       .  A
C623        C624   1.399   1_556  A
C623        H631   1.083       .  S
C624        H632   1.083       .  S
C625        H633   1.088       .  S
C625        C626   1.345       .  D
C626        H634   1.086       .  S
C627        H635   1.087       .  S
C627        C628   1.344       .  D
C628        H636   1.086       .  S
C637        C645   1.484       .  S
C637        C638   1.407       .  A
C637        C642   1.402       .  A
C638        C639   1.405       .  A
C638        H647   1.082       .  S
C639        C640   1.411       .  A
C639        H648   1.080       .  S
C640        C643   1.491       .  S
C640        C641   1.403       .  A
C641        C642   1.394       .  A
C641        H649   1.084       .  S
C642        H650   1.084       .  S
C643        H651   1.088       .  S
C643        C644   1.348       .  D
C644        H652   1.083       .  S
C645        H653   1.088       .  S
C645        C646   1.347       .  D
C646        H654   1.085       .  S
C655        C663   1.493       .  S
C655        C656   1.407       .  A
C655        C660   1.408       .  A
C656        C657   1.403       .  A
C656        H665   1.083       .  S
C657        C658   1.405       .  A
C657        H666   1.083       .  S
C658        C661   1.481       .  S
C658        C659   1.401       .  A
C659        C660   1.395       .  A
C659        H667   1.084       .  S
C660        H668   1.080       .  S
C661        H669   1.088       .  S
C661        C662   1.346       .  D
C662        H670   1.086       .  S
C663        H671   1.086       .  S
C663        C664   1.349       .  D
C664        H672   1.083       .  S
C673        C681   1.481       .  S
C673        C674   1.401   1_554  A
C673        C678   1.408       .  A
C674        C675   1.399       .  A
C674        H683   1.083       .  S
C675        C676   1.408       .  A
C675        H684   1.083       .  S
C676        C679   1.480       .  S
C676        C677   1.400   1_556  A
C677        C678   1.397       .  A
C677        H685   1.083       .  S
C678        H686   1.083       .  S
C679        H687   1.087       .  S
C679        C680   1.342       .  D
C680        H688   1.087       .  S
C681        H689   1.087       .  S
C681        C682   1.342       .  D
C682        H690   1.087       .  S
C691        C699   1.479       .  S
C691        C692   1.403   1_556  A
C691        C696   1.405       .  A
C692        C693   1.399       .  A
C692        H701   1.083       .  S
C693        C694   1.405       .  A
C693        H702   1.083       .  S
C694        C697   1.479       .  S
C694        C695   1.402   1_554  A
C695        C696   1.400       .  A
C695        H703   1.083       .  S
C696        H704   1.083       .  S
C697        H705   1.087       .  S
C697        C698   1.343       .  D
C698        H706   1.087       .  S
C699        H707   1.088       .  S
C699        C700   1.346       .  D
C700        H708   1.086       .  S
C709        C717   1.478       .  S
C709        C710   1.400       .  A
C709        C714   1.407       .  A
C710        C711   1.396       .  A
C710        H719   1.083       .  S
C711        C712   1.407       .  A
C711        H720   1.083       .  S
C712        C715   1.483       .  S
C712        C713   1.403       .  A
C713        C714   1.402       .  A
C713        H721   1.083       .  S
C714        H722   1.083       .  S
C715        H723   1.087       .  S
C715        C716   1.343       .  D
C716        H724   1.087       .  S
C717        H725   1.087       .  S
C717        C718   1.344       .  D
C718        H726   1.086       .  S
C727        C735   1.484       .  S
C727        C728   1.404       .  A
C727        C732   1.407       .  A
C728        C729   1.401       .  A
C728        H737   1.083       .  S
C729        C730   1.405       .  A
C729        H738   1.083       .  S
C730        C733   1.477       .  S
C730        C731   1.401       .  A
C731        C732   1.396       .  A
C731        H739   1.084       .  S
C732        H740   1.082       .  S
C733        H741   1.088       .  S
C733        C734   1.345       .  D
C734        H742   1.086       .  S
C735        H743   1.087       .  S
C735        C736   1.345       .  D
C736        H744   1.086       .  S
C745        C753   1.483       .  S
C745        C746   1.404       .  A
C745        C750   1.406       .  A
C746        C747   1.400   1_455  A
C746        H755   1.083       .  S
C747        C748   1.404       .  A
C747        H756   1.083       .  S
C748        C751   1.481       .  S
C748        C749   1.403   1_655  A
C749        C750   1.400       .  A
C749        H757   1.083       .  S
C750        H758   1.083       .  S
C751        H759   1.087       .  S
C751        C752   1.344       .  D
C752        H760   1.086       .  S
C753        H761   1.087       .  S
C753        C754   1.347       .  D
C754        H762   1.086       .  S
C763        C771   1.480       .  S
C763        C764   1.403   1_565  A
C763        C768   1.406       .  A
C764        C765   1.399       .  A
C764        H773   1.083   1_545  S
C765        C766   1.405       .  A
C765        H774   1.083       .  S
C766        C769   1.482       .  S
C766        C767   1.404       .  A
C767        C768   1.401   1_545  A
C767        H775   1.083       .  S
C768        H776   1.083       .  S
C769        H777   1.087       .  S
C769        C770   1.344       .  D
C770        H778   1.086       .  S
C771        H779   1.088       .  S
C771        C772   1.346       .  D
C772        H780   1.086       .  S
C781        C789   1.484       .  S
C781        C782   1.405       .  A
C781        C786   1.407       .  A
C782        C783   1.400       .  A
C782        H791   1.083       .  S
C783        C784   1.405       .  A
C783        H792   1.082       .  S
C784        C787   1.479       .  S
C784        C785   1.402       .  A
C785        C786   1.393       .  A
C785        H793   1.084       .  S
C786        H794   1.081       .  S
C787        H795   1.088       .  S
C787        C788   1.346       .  D
C788        H796   1.085       .  S
C789        H797   1.087       .  S
C789        C790   1.345       .  D
C790        H798   1.085       .  S
C799        C807   1.487       .  S
C799        C800   1.405       .  A
C799        C804   1.406       .  A
C800        C801   1.399   1_455  A
C800        H809   1.083       .  S
C801        C802   1.405       .  A
C801        H810   1.083       .  S
C802        C805   1.485       .  S
C802        C803   1.405   1_655  A
C803        C804   1.402       .  A
C803        H811   1.083       .  S
C804        H812   1.082       .  S
C805        H813   1.088       .  S
C805        C806   1.349       .  D
C806        H814   1.086       .  S
C807        H815   1.087       .  S
C807        C808   1.349       .  D
C808        H816   1.085       .  S
C817        C825   1.487       .  S
C817        C818   1.404   1_554  A
C817        C822   1.406       .  A
C818        C819   1.399       .  A
C818        H827   1.084       .  S
C819        C820   1.403       .  A
C819        H828   1.083       .  S
C820        C823   1.493       .  S
C820        C821   1.410       .  A
C821        C822   1.404   1_556  A
C821        H829   1.082       .  S
C822        H830   1.082       .  S
C823        H831   1.087       .  S
C823        C824   1.346       .  D
C824        H832   1.085       .  S
C825        H833   1.088       .  S
C825        C826   1.348       .  D
C826        H834   1.086       .  S
C835        C843   1.492       .  S
C835        C836   1.404   1_565  A
C835        C840   1.409   1_565  A
C836        C837   1.393       .  A
C836        H845   1.084   1_545  S
C837        C838   1.406       .  A
C837        H846   1.082       .  S
C838        C841   1.497       .  S
C838        C839   1.409       .  A
C839        C840   1.411       .  A
C839        H847   1.083       .  S
C840        H848   1.082   1_545  S
C841        H849   1.086       .  S
C841        C842   1.349       .  D
C842        H850   1.086       .  S
C843        H851   1.087       .  S
C843        C844   1.354       .  D
C844        H852   1.085       .  S
C853        C861   1.481       .  S
C853        C854   1.403   1_554  A
C853        C858   1.406       .  A
C854        C855   1.398       .  A
C854        H863   1.084       .  S
C855        C856   1.402       .  A
C855        H864   1.083       .  S
C856        C859   1.483       .  S
C856        C857   1.407       .  A
C857        C858   1.399   1_556  A
C857        H865   1.083       .  S
C858        H866   1.082       .  S
C859        H867   1.087       .  S
C859        C860   1.344       .  D
C860        H868   1.086       .  S
C861        H869   1.088       .  S
C861        C862   1.345       .  D
C862        H870   1.086       .  S
C871        C879   1.494       .  S
C871        C872   1.403   1_554  A
C871        C876   1.412       .  A
C872        C873   1.395       .  A
C872        H881   1.084       .  S
C873        C874   1.403       .  A
C873        H882   1.084       .  S
C874        C877   1.490       .  S
C874        C875   1.409       .  A
C875        C876   1.411   1_556  A
C875        H883   1.082       .  S
C876        H884   1.081       .  S
C877        H885   1.088       .  S
C877        C878   1.351       .  D
C878        H886   1.085       .  S
C879        H887   1.088       .  S
C879        C880   1.350       .  D
C880        H888   1.085       .  S
C889        C897   1.480       .  S
C889        C890   1.402       .  A
C889        C894   1.406       .  A
C890        C891   1.397       .  A
C890        H899   1.084       .  S
C891        C892   1.407       .  A
C891        H900   1.082       .  S
C892        C895   1.481       .  S
C892        C893   1.403       .  A
C893        C894   1.397       .  A
C893        H901   1.084       .  S
C894        H902   1.082       .  S
C895        H903   1.088       .  S
C895        C896   1.344       .  D
C896        H904   1.086       .  S
C897        H905   1.088       .  S
C897        C898   1.341       .  D
C898        H906   1.086       .  S
C907        C915   1.484       .  S
C907        C908   1.405       .  A
C907        C912   1.405       .  A
C908        C909   1.401       .  A
C908        H917   1.084       .  S
C909        C910   1.404       .  A
C909        H918   1.083       .  S
C910        C913   1.482       .  S
C910        C911   1.404       .  A
C911        C912   1.401       .  A
C911        H919   1.083       .  S
C912        H920   1.082       .  S
C913        H921   1.088       .  S
C913        C914   1.346       .  D
C914        H922   1.086       .  S
C915        H923   1.088       .  S
C915        C916   1.348       .  D
C916        H924   1.086       .  S
C925        C933   1.487       .  S
C925        C926   1.404   1_554  A
C925        C930   1.408       .  A
C926        C927   1.399       .  A
C926        H935   1.084       .  S
C927        C928   1.407       .  A
C927        H936   1.082       .  S
C928        C931   1.488       .  S
C928        C929   1.404   1_556  A
C929        C930   1.401       .  A
C929        H937   1.083       .  S
C930        H938   1.082       .  S
C931        H939   1.087       .  S
C931        C932   1.346       .  D
C932        H940   1.086       .  S
C933        H941   1.088       .  S
C933        C934   1.348       .  D
C934        H942   1.085       .  S
C943        C951   1.487       .  S
C943        C944   1.402       .  A
C943        C948   1.409       .  A
C944        C945   1.398       .  A
C944        H953   1.084       .  S
C945        C946   1.406       .  A
C945        H954   1.083       .  S
C946        C949   1.481       .  S
C946        C947   1.401       .  A
C947        C948   1.399       .  A
C947        H955   1.083       .  S
C948        H956   1.082       .  S
C949        H957   1.087       .  S
C949        C950   1.342       .  D
C950        H958   1.087       .  S
C951        H959   1.087       .  S
C951        C952   1.342       .  D
C952        H960   1.086       .  S
C961        C969   1.491       .  S
C961        C962   1.411       .  A
C961        C966   1.402       .  A
C962        C963   1.409       .  A
C962        H971   1.081       .  S
C963        C964   1.408       .  A
C963        H972   1.082       .  S
C964        C967   1.488       .  S
C964        C965   1.403       .  A
C965        C966   1.393       .  A
C965        H973   1.084       .  S
C966        H974   1.084       .  S
C967        H975   1.088       .  S
C967        C968   1.350       .  D
C968        H976   1.085       .  S
C969        H977   1.087       .  S
C969        C970   1.349       .  D
C970        H978   1.085       .  S
C979        C987   1.483       .  S
C979        C980   1.402       .  A
C979        C984   1.406       .  A
C980        C981   1.398       .  A
C980        H989   1.083       .  S
C981        C982   1.406       .  A
C981        H990   1.082       .  S
C982        C985   1.488       .  S
C982        C983   1.405       .  A
C983        C984   1.403       .  A
C983        H991   1.083       .  S
C984        H992   1.083       .  S
C985        H993   1.087       .  S
C985        C986   1.348       .  D
C986        H994   1.086       .  S
C987        H995   1.087       .  S
C987        C988   1.346       .  D
C988        H996   1.086       .  S
C997       C1005   1.482       .  S
C997        C998   1.403       .  A
C997       C1002   1.406       .  A
C998        C999   1.399       .  A
C998       H1007   1.083       .  S
C999       C1000   1.405   1_554  A
C999       H1008   1.082   1_554  S
C1000      C1003   1.486       .  S
C1000      C1001   1.405       .  A
C1001      C1002   1.402   1_556  A
C1001      H1009   1.083       .  S
C1002      H1010   1.083       .  S
C1003      H1011   1.088       .  S
C1003      C1004   1.346       .  D
C1004      H1012   1.086       .  S
C1005      H1013   1.088       .  S
C1005      C1006   1.346       .  D
C1006      H1014   1.086       .  S
C1015      C1023   1.476       .  S
C1015      C1016   1.400       .  A
C1015      C1020   1.407   1_556  A
C1016      C1017   1.392   1_556  A
C1016      H1025   1.084       .  S
C1017      C1018   1.406       .  A
C1017      H1026   1.083       .  S
C1018      C1021   1.485       .  S
C1018      C1019   1.404       .  A
C1019      C1020   1.403       .  A
C1019      H1027   1.083       .  S
C1020      H1028   1.083       .  S
C1021      H1029   1.086       .  S
C1021      C1022   1.346       .  D
C1022      H1030   1.086       .  S
C1023      H1031   1.089       .  S
C1023      C1024   1.342       .  D
C1024      H1032   1.086       .  S
C1033      C1041   1.480       .  S
C1033      C1034   1.403       .  A
C1033      C1038   1.406       .  A
C1034      C1035   1.398       .  A
C1034      H1043   1.084       .  S
C1035      C1036   1.402       .  A
C1035      H1044   1.083       .  S
C1036      C1039   1.479       .  S
C1036      C1037   1.405       .  A
C1037      C1038   1.399       .  A
C1037      H1045   1.083       .  S
C1038      H1046   1.083       .  S
C1039      H1047   1.087       .  S
C1039      C1040   1.343       .  D
C1040      H1048   1.087       .  S
C1041      H1049   1.088       .  S
C1041      C1042   1.344       .  D
C1042      H1050   1.086       .  S
C1051      C1059   1.489       .  S
C1051      C1052   1.404       .  A
C1051      C1056   1.406       .  A
C1052      C1053   1.403       .  A
C1052      H1061   1.083       .  S
C1053      C1054   1.410       .  A
C1053      H1062   1.081       .  S
C1054      C1057   1.489       .  S
C1054      C1055   1.404       .  A
C1055      C1056   1.395       .  A
C1055      H1063   1.084       .  S
C1056      H1064   1.082       .  S
C1057      H1065   1.088       .  S
C1057      C1058   1.348       .  D
C1058      H1066   1.084       .  S
C1059      H1067   1.086       .  S
C1059      C1060   1.346       .  D
C1060      H1068   1.085       .  S
C1069      C1077   1.497       .  S
C1069      C1070   1.404       .  A
C1069      C1074   1.411       .  A
C1070      C1071   1.401       .  A
C1070      H1079   1.083       .  S
C1071      C1072   1.410       .  A
C1071      H1080   1.080       .  S
C1072      C1075   1.496       .  S
C1072      C1073   1.404       .  A
C1073      C1074   1.401       .  A
C1073      H1081   1.083       .  S
C1074      H1082   1.080       .  S
C1075      H1083   1.086       .  S
C1075      C1076   1.348       .  D
C1076      H1084   1.083       .  S
C1077      H1085   1.086       .  S
C1077      C1078   1.348       .  D
C1078      H1086   1.083       .  S
C1087      C1095   1.502       .  S
C1087      C1088   1.413       .  A
C1087      C1092   1.405       .  A
C1088      C1089   1.404       .  A
C1088      H1097   1.079       .  S
C1089      C1090   1.408       .  A
C1089      H1098   1.081       .  S
C1090      C1093   1.496       .  S
C1090      C1091   1.405       .  A
C1091      C1092   1.400       .  A
C1091      H1099   1.083       .  S
C1092      H1100   1.083       .  S
C1093      H1101   1.087       .  S
C1093      C1094   1.352       .  D
C1094      H1102   1.084       .  S
C1095      H1103   1.087       .  S
C1095      C1096   1.350       .  D
C1096      H1104   1.082       .  S
C1105      C1113   1.492       .  S
C1105      C1106   1.405       .  A
C1105      C1110   1.409       .  A
C1106      C1107   1.402       .  A
C1106      H1115   1.083       .  S
C1107      C1108   1.407       .  A
C1107      H1116   1.083       .  S
C1108      C1111   1.490       .  S
C1108      C1109   1.404       .  A
C1109      C1110   1.402       .  A
C1109      H1117   1.083       .  S
C1110      H1118   1.082       .  S
C1111      H1119   1.087       .  S
C1111      C1112   1.348       .  D
C1112      H1120   1.086       .  S
C1113      H1121   1.087       .  S
C1113      C1114   1.349       .  D
C1114      H1122   1.086       .  S
C1123      C1131   1.499       .  S
C1123      C1124   1.404       .  A
C1123      C1128   1.410       .  A
C1124      C1125   1.403       .  A
C1124      H1133   1.083       .  S
C1125      C1126   1.411       .  A
C1125      H1134   1.081       .  S
C1126      C1129   1.500       .  S
C1126      C1127   1.406       .  A
C1127      C1128   1.404       .  A
C1127      H1135   1.083       .  S
C1128      H1136   1.082       .  S
C1129      H1137   1.087       .  S
C1129      C1130   1.350       .  D
C1130      H1138   1.084       .  S
C1131      H1139   1.087       .  S
C1131      C1132   1.347       .  D
C1132      H1140   1.085       .  S
C1141      C1149   1.480       .  S
C1141      C1142   1.403       .  A
C1141      C1146   1.405       .  A
C1142      C1143   1.400       .  A
C1142      H1151   1.083       .  S
C1143      C1144   1.405       .  A
C1143      H1152   1.083       .  S
C1144      C1147   1.479       .  S
C1144      C1145   1.403       .  A
C1145      C1146   1.399       .  A
C1145      H1153   1.083       .  S
C1146      H1154   1.083       .  S
C1147      H1155   1.088       .  S
C1147      C1148   1.344       .  D
C1148      H1156   1.086       .  S
C1149      H1157   1.088       .  S
C1149      C1150   1.343       .  D
C1150      H1158   1.086       .  S
C1159      C1167   1.475       .  S
C1159      C1160   1.400       .  A
C1159      C1164   1.406       .  A
C1160      C1161   1.394       .  A
C1160      H1169   1.084       .  S
C1161      C1162   1.407       .  A
C1161      H1170   1.083       .  S
C1162      C1165   1.480       .  S
C1162      C1163   1.402       .  A
C1163      C1164   1.399       .  A
C1163      H1171   1.083       .  S
C1164      H1172   1.083       .  S
C1165      H1173   1.087       .  S
C1165      C1166   1.341       .  D
C1166      H1174   1.087       .  S
C1167      H1175   1.088       .  S
C1167      C1168   1.343       .  D
C1168      H1176   1.086       .  S
C1177      C1185   1.495       .  S
C1177      C1178   1.405       .  A
C1177      C1182   1.409       .  A
C1178      C1179   1.401       .  A
C1178      H1187   1.083       .  S
C1179      C1180   1.409       .  A
C1179      H1188   1.080       .  S
C1180      C1183   1.493       .  S
C1180      C1181   1.403       .  A
C1181      C1182   1.398       .  A
C1181      H1189   1.083       .  S
C1182      H1190   1.079       .  S
C1183      H1191   1.087       .  S
C1183      C1184   1.348       .  D
C1184      H1192   1.083       .  S
C1185      H1193   1.087       .  S
C1185      C1186   1.348       .  D
C1186      H1194   1.082       .  S
C1195      C1203   1.476       .  S
C1195      C1196   1.402       .  A
C1195      C1200   1.406       .  A
C1196      C1197   1.398       .  A
C1196      H1205   1.083       .  S
C1197      C1198   1.404       .  A
C1197      H1206   1.083       .  S
C1198      C1201   1.471       .  S
C1198      C1199   1.400       .  A
C1199      C1200   1.397       .  A
C1199      H1207   1.083       .  S
C1200      H1208   1.083       .  S
C1201      H1209   1.088       .  S
C1201      C1202   1.340       .  D
C1202      H1210   1.086       .  S
C1203      H1211   1.087       .  S
C1203      C1204   1.341       .  D
C1204      H1212   1.087       .  S
C1213      C1221   1.481       .  S
C1213      C1214   1.401       .  A
C1213      C1218   1.407       .  A
C1214      C1215   1.396       .  A
C1214      H1223   1.084       .  S
C1215      C1216   1.407       .  A
C1215      H1224   1.083       .  S
C1216      C1219   1.486       .  S
C1216      C1217   1.404       .  A
C1217      C1218   1.403       .  A
C1217      H1225   1.083       .  S
C1218      H1226   1.083       .  S
C1219      H1227   1.086       .  S
C1219      C1220   1.343       .  D
C1220      H1228   1.087       .  S
C1221      H1229   1.088       .  S
C1221      C1222   1.345       .  D
C1222      H1230   1.086       .  S
C1231      C1239   1.490       .  S
C1231      C1232   1.404       .  A
C1231      C1236   1.407       .  A
C1232      C1233   1.398       .  A
C1232      H1241   1.084       .  S
C1233      C1234   1.410       .  A
C1233      H1242   1.078       .  S
C1234      C1237   1.495       .  S
C1234      C1235   1.406       .  A
C1235      C1236   1.400       .  A
C1235      H1243   1.083       .  S
C1236      H1244   1.080       .  S
C1237      H1245   1.087       .  S
C1237      C1238   1.349       .  D
C1238      H1246   1.081       .  S
C1239      H1247   1.087       .  S
C1239      C1240   1.349       .  D
C1240      H1248   1.083       .  S
C1249      C1257   1.494       .  S
C1249      C1250   1.405       .  A
C1249      C1254   1.409       .  A
C1250      C1251   1.404       .  A
C1250      H1259   1.083       .  S
C1251      C1252   1.408       .  A
C1251      H1260   1.083       .  S
C1252      C1255   1.491       .  S
C1252      C1253   1.403       .  A
C1253      C1254   1.403       .  A
C1253      H1261   1.083       .  S
C1254      H1262   1.082       .  S
C1255      H1263   1.087       .  S
C1255      C1256   1.347       .  D
C1256      H1264   1.087       .  S
C1257      H1265   1.087       .  S
C1257      C1258   1.348       .  D
C1258      H1266   1.086       .  S
C1267      C1275   1.486       .  S
C1267      C1268   1.401       .  A
C1267      C1272   1.406       .  A
C1268      C1269   1.397       .  A
C1268      H1277   1.084       .  S
C1269      C1270   1.410       .  A
C1269      H1278   1.080       .  S
C1270      C1273   1.499       .  S
C1270      C1271   1.408       .  A
C1271      C1272   1.406       .  A
C1271      H1279   1.083       .  S
C1272      H1280   1.083       .  S
C1273      H1281   1.087       .  S
C1273      C1274   1.349       .  D
C1274      H1282   1.084       .  S
C1275      H1283   1.088       .  S
C1275      C1276   1.348       .  D
C1276      H1284   1.086       .  S
C1285      C1293   1.494       .  S
C1285      C1286   1.408       .  A
C1285      C1290   1.408       .  A
C1286      C1287   1.406       .  A
C1286      H1295   1.083       .  S
C1287      C1288   1.406       .  A
C1287      H1296   1.083       .  S
C1288      C1291   1.480       .  S
C1288      C1289   1.400       .  A
C1289      C1290   1.395       .  A
C1289      H1297   1.084       .  S
C1290      H1298   1.081       .  S
C1291      H1299   1.088       .  S
C1291      C1292   1.346       .  D
C1292      H1300   1.086       .  S
C1293      H1301   1.087       .  S
C1293      C1294   1.349       .  D
C1294      H1302   1.085       .  S
C1303      C1311   1.492       .  S
C1303      C1304   1.402       .  A
C1303      C1308   1.408       .  A
C1304      C1305   1.401       .  A
C1304      H1313   1.084       .  S
C1305      C1306   1.412       .  A
C1305      H1314   1.079       .  S
C1306      C1309   1.497       .  S
C1306      C1307   1.405       .  A
C1307      C1308   1.400       .  A
C1307      H1315   1.083       .  S
C1308      H1316   1.081       .  S
C1309      H1317   1.087       .  S
C1309      C1310   1.347       .  D
C1310      H1318   1.083       .  S
C1311      H1319   1.087       .  S
C1311      C1312   1.346       .  D
C1312      H1320   1.085       .  S
C1321      C1329   1.496       .  S
C1321      C1322   1.406       .  A
C1321      C1326   1.408       .  A
C1322      C1323   1.404       .  A
C1322      H1331   1.083       .  S
C1323      C1324   1.408       .  A
C1323      H1332   1.082       .  S
C1324      C1327   1.498       .  S
C1324      C1325   1.407       .  A
C1325      C1326   1.406       .  A
C1325      H1333   1.083       .  S
C1326      H1334   1.082       .  S
C1327      H1335   1.087       .  S
C1327      C1328   1.352       .  D
C1328      H1336   1.086       .  S
C1329      H1337   1.087       .  S
C1329      C1330   1.352       .  D
C1330      H1338   1.086       .  S
C1339      C1347   1.477       .  S
C1339      C1340   1.402       .  A
C1339      C1344   1.404       .  A
C1340      C1341   1.399       .  A
C1340      H1349   1.083       .  S
C1341      C1342   1.406       .  A
C1341      H1350   1.083       .  S
C1342      C1345   1.477       .  S
C1342      C1343   1.402       .  A
C1343      C1344   1.396       .  A
C1343      H1351   1.084       .  S
C1344      H1352   1.083       .  S
C1345      H1353   1.088       .  S
C1345      C1346   1.343       .  D
C1346      H1354   1.086       .  S
C1347      H1355   1.087       .  S
C1347      C1348   1.340       .  D
C1348      H1356   1.087       .  S
C1357      C1365   1.482       .  S
C1357      C1358   1.402       .  A
C1357      C1362   1.405       .  A
C1358      C1359   1.398       .  A
C1358      H1367   1.084       .  S
C1359      C1360   1.407       .  A
C1359      H1368   1.082       .  S
C1360      C1363   1.489       .  S
C1360      C1361   1.406       .  A
C1361      C1362   1.403       .  A
C1361      H1369   1.083       .  S
C1362      H1370   1.083       .  S
C1363      H1371   1.087       .  S
C1363      C1364   1.346       .  D
C1364      H1372   1.086       .  S
C1365      H1373   1.088       .  S
C1365      C1366   1.346       .  D
C1366      H1374   1.086       .  S
C1375      C1383   1.482       .  S
C1375      C1376   1.401       .  A
C1375      C1380   1.406       .  A
C1376      C1377   1.396       .  A
C1376      H1385   1.084       .  S
C1377      C1378   1.410       .  A
C1377      H1386   1.080       .  S
C1378      C1381   1.493       .  S
C1378      C1379   1.405       .  A
C1379      C1380   1.402       .  A
C1379      H1387   1.083       .  S
C1380      H1388   1.082       .  S
C1381      H1389   1.086       .  S
C1381      C1382   1.346       .  D
C1382      H1390   1.083       .  S
C1383      H1391   1.088       .  S
C1383      C1384   1.346       .  D
C1384      H1392   1.085       .  S
C1393      C1401   1.497       .  S
C1393      C1394   1.406       .  A
C1393      C1398   1.410       .  A
C1394      C1395   1.401       .  A
C1394      H1403   1.084       .  S
C1395      C1396   1.407       .  A
C1395      H1404   1.081       .  S
C1396      C1399   1.493       .  S
C1396      C1397   1.404       .  A
C1397      C1398   1.402       .  A
C1397      H1405   1.084       .  S
C1398      H1406   1.080       .  S
C1399      H1407   1.087       .  S
C1399      C1400   1.348       .  D
C1400      H1408   1.085       .  S
C1401      H1409   1.087       .  S
C1401      C1402   1.349       .  D
C1402      H1410   1.083       .  S
C1411      C1419   1.489       .  S
C1411      C1412   1.407       .  A
C1411      C1416   1.405       .  A
C1412      C1413   1.405       .  A
C1412      H1421   1.083       .  S
C1413      C1414   1.406       .  A
C1413      H1422   1.083       .  S
C1414      C1417   1.488       .  S
C1414      C1415   1.405       .  A
C1415      C1416   1.401       .  A
C1415      H1423   1.083       .  S
C1416      H1424   1.083       .  S
C1417      H1425   1.088       .  S
C1417      C1418   1.349       .  D
C1418      H1426   1.086       .  S
C1419      H1427   1.087       .  S
C1419      C1420   1.349       .  D
C1420      H1428   1.086       .  S
C1429      C1437   1.501       .  S
C1429      C1430   1.406       .  A
C1429      C1434   1.410       .  A
C1430      C1431   1.404       .  A
C1430      H1439   1.083       .  S
C1431      C1432   1.411       .  A
C1431      H1440   1.081       .  S
C1432      C1435   1.499       .  S
C1432      C1433   1.404       .  A
C1433      C1434   1.401       .  A
C1433      H1441   1.083       .  S
C1434      H1442   1.080       .  S
C1435      H1443   1.087       .  S
C1435      C1436   1.348       .  D
C1436      H1444   1.084       .  S
C1437      H1445   1.087       .  S
C1437      C1438   1.349       .  D
C1438      H1446   1.084       .  S
C1447      C1455   1.489       .  S
C1447      C1448   1.407       .  A
C1447      C1452   1.404       .  A
C1448      C1449   1.407   1_545  A
C1448      H1457   1.083       .  S
C1449      C1450   1.411       .  A
C1449      H1458   1.083       .  S
C1450      C1453   1.494       .  S
C1450      C1451   1.402       .  A
C1451      C1452   1.399   1_565  A
C1451      H1459   1.083       .  S
C1452      H1460   1.083       .  S
C1453      H1461   1.087       .  S
C1453      C1454   1.346       .  D
C1454      H1462   1.086       .  S
C1455      H1463   1.088       .  S
C1455      C1456   1.351       .  D
C1456      H1464   1.086       .  S
C1465      C1473   1.491       .  S
C1465      C1466   1.409       .  A
C1465      C1470   1.403       .  A
C1466      C1467   1.412       .  A
C1466      H1475   1.082       .  S
C1467      C1468   1.412       .  A
C1467      H1476   1.082       .  S
C1468      C1471   1.492       .  S
C1468      C1469   1.401       .  A
C1469      C1470   1.392       .  A
C1469      H1477   1.084       .  S
C1470      H1478   1.084       .  S
C1471      H1479   1.087       .  S
C1471      C1472   1.348       .  D
C1472      H1480   1.085       .  S
C1473      H1481   1.088       .  S
C1473      C1474   1.353       .  D
C1474      H1482   1.085       .  S
C1483      C1491   1.490       .  S
C1483      C1484   1.402       .  A
C1483      C1488   1.410       .  A
C1484      C1485   1.398       .  A
C1484      H1493   1.083       .  S
C1485      C1486   1.410       .  A
C1485      H1494   1.081       .  S
C1486      C1489   1.491       .  S
C1486      C1487   1.403       .  A
C1487      C1488   1.400       .  A
C1487      H1495   1.083       .  S
C1488      H1496   1.081       .  S
C1489      H1497   1.087       .  S
C1489      C1490   1.344       .  D
C1490      H1498   1.084       .  S
C1491      H1499   1.087       .  S
C1491      C1492   1.344       .  D
C1492      H1500   1.084       .  S
C1501      C1509   1.492       .  S
C1501      C1502   1.406       .  A
C1501      C1506   1.406       .  A
C1502      C1503   1.407   1_655  A
C1502      H1511   1.083       .  S
C1503      C1504   1.409       .  A
C1503      H1512   1.082       .  S
C1504      C1507   1.488       .  S
C1504      C1505   1.402       .  A
C1505      C1506   1.395   1_455  A
C1505      H1513   1.084       .  S
C1506      H1514   1.083       .  S
C1507      H1515   1.088       .  S
C1507      C1508   1.348       .  D
C1508      H1516   1.085       .  S
C1509      H1517   1.086       .  S
C1509      C1510   1.346       .  D
C1510      H1518   1.087       .  S
C1519      C1527   1.488       .  S
C1519      C1520   1.404       .  A
C1519      C1524   1.408       .  A
C1520      C1521   1.396       .  A
C1520      H1529   1.083       .  S
C1521      C1522   1.406       .  A
C1521      H1530   1.082       .  S
C1522      C1525   1.490       .  S
C1522      C1523   1.405       .  A
C1523      C1524   1.403       .  A
C1523      H1531   1.083       .  S
C1524      H1532   1.081       .  S
C1525      H1533   1.087       .  S
C1525      C1526   1.348       .  D
C1526      H1534   1.085       .  S
C1527      H1535   1.087       .  S
C1527      C1528   1.349       .  D
C1528      H1536   1.085       .  S
C1537      C1545   1.484       .  S
C1537      C1538   1.407       .  A
C1537      C1542   1.402       .  A
C1538      C1539   1.400       .  A
C1538      H1547   1.083       .  S
C1539      C1540   1.406       .  A
C1539      H1548   1.083       .  S
C1540      C1543   1.481       .  S
C1540      C1541   1.403       .  A
C1541      C1542   1.398       .  A
C1541      H1549   1.083       .  S
C1542      H1550   1.083       .  S
C1543      H1551   1.088       .  S
C1543      C1544   1.345       .  D
C1544      H1552   1.086       .  S
C1545      H1553   1.087       .  S
C1545      C1546   1.345       .  D
C1546      H1554   1.086       .  S
C1555      C1563   1.492       .  S
C1555      C1556   1.405       .  A
C1555      C1560   1.408       .  A
C1556      C1557   1.403       .  A
C1556      H1565   1.083       .  S
C1557      C1558   1.409       .  A
C1557      H1566   1.081       .  S
C1558      C1561   1.489       .  S
C1558      C1559   1.403       .  A
C1559      C1560   1.396       .  A
C1559      H1567   1.083       .  S
C1560      H1568   1.081       .  S
C1561      H1569   1.087       .  S
C1561      C1562   1.347       .  D
C1562      H1570   1.084       .  S
C1563      H1571   1.087       .  S
C1563      C1564   1.347       .  D
C1564      H1572   1.084       .  S
C1573      C1581   1.481       .  S
C1573      C1574   1.404       .  A
C1573      C1578   1.406       .  A
C1574      C1575   1.399   1_565  A
C1574      H1583   1.083       .  S
C1575      C1576   1.405       .  A
C1575      H1584   1.083       .  S
C1576      C1579   1.479       .  S
C1576      C1577   1.402       .  A
C1577      C1578   1.398   1_545  A
C1577      H1585   1.083       .  S
C1578      H1586   1.082       .  S
C1579      H1587   1.088       .  S
C1579      C1580   1.343       .  D
C1580      H1588   1.087       .  S
C1581      H1589   1.088       .  S
C1581      C1582   1.345       .  D
C1582      H1590   1.086       .  S
C1591      C1599   1.489       .  S
C1591      C1592   1.406       .  A
C1591      C1596   1.406       .  A
C1592      C1593   1.407       .  A
C1592      H1601   1.083       .  S
C1593      C1594   1.408       .  A
C1593      H1602   1.082       .  S
C1594      C1597   1.486       .  S
C1594      C1595   1.402       .  A
C1595      C1596   1.394       .  A
C1595      H1603   1.084       .  S
C1596      H1604   1.083       .  S
C1597      H1605   1.088       .  S
C1597      C1598   1.348       .  D
C1598      H1606   1.086       .  S
C1599      H1607   1.086       .  S
C1599      C1600   1.346       .  D
C1600      H1608   1.087       .  S
C1609      C1617   1.481       .  S
C1609      C1610   1.399       .  A
C1609      C1614   1.408       .  A
C1610      C1611   1.392       .  A
C1610      H1619   1.084       .  S
C1611      C1612   1.410       .  A
C1611      H1620   1.081       .  S
C1612      C1615   1.491       .  S
C1612      C1613   1.405       .  A
C1613      C1614   1.404       .  A
C1613      H1621   1.083       .  S
C1614      H1622   1.082       .  S
C1615      H1623   1.087       .  S
C1615      C1616   1.342       .  D
C1616      H1624   1.085       .  S
C1617      H1625   1.088       .  S
C1617      C1618   1.344       .  D
C1618      H1626   1.086       .  S
C1627      C1635   1.500       .  S
C1627      C1628   1.405       .  A
C1627      C1632   1.409       .  A
C1628      C1629   1.403       .  A
C1628      H1637   1.083       .  S
C1629      C1630   1.410       .  A
C1629      H1638   1.080       .  S
C1630      C1633   1.501       .  S
C1630      C1631   1.406       .  A
C1631      C1632   1.403       .  A
C1631      H1639   1.083       .  S
C1632      H1640   1.080       .  S
C1633      H1641   1.087       .  S
C1633      C1634   1.351       .  D
C1634      H1642   1.083       .  S
C1635      H1643   1.087       .  S
C1635      C1636   1.350       .  D
C1636      H1644   1.084       .  S
C1645      C1653   1.485       .  S
C1645      C1646   1.402       .  A
C1645      C1650   1.406       .  A
C1646      C1647   1.397   1_655  A
C1646      H1655   1.084       .  S
C1647      C1648   1.408       .  A
C1647      H1656   1.082       .  S
C1648      C1651   1.499       .  S
C1648      C1649   1.408       .  A
C1649      C1650   1.408   1_455  A
C1649      H1657   1.083       .  S
C1650      H1658   1.083       .  S
C1651      H1659   1.086       .  S
C1651      C1652   1.350       .  D
C1652      H1660   1.085       .  S
C1653      H1661   1.088       .  S
C1653      C1654   1.350       .  D
C1654      H1662   1.085       .  S
C1663      C1671   1.475       .  S
C1663      C1664   1.400       .  A
C1663      C1668   1.405       .  A
C1664      C1665   1.394       .  A
C1664      H1673   1.084       .  S
C1665      C1666   1.408       .  A
C1665      H1674   1.081       .  S
C1666      C1669   1.485       .  S
C1666      C1667   1.404       .  A
C1667      C1668   1.399       .  A
C1667      H1675   1.083       .  S
C1668      H1676   1.083       .  S
C1669      H1677   1.087       .  S
C1669      C1670   1.345       .  D
C1670      H1678   1.085       .  S
C1671      H1679   1.088       .  S
C1671      C1672   1.341       .  D
C1672      H1680   1.086       .  S
C1681      C1689   1.488       .  S
C1681      C1682   1.405       .  A
C1681      C1686   1.406       .  A
C1682      C1683   1.402       .  A
C1682      H1691   1.083       .  S
C1683      C1684   1.406       .  A
C1683      H1692   1.082       .  S
C1684      C1687   1.488       .  S
C1684      C1685   1.406       .  A
C1685      C1686   1.402       .  A
C1685      H1693   1.083       .  S
C1686      H1694   1.083       .  S
C1687      H1695   1.087       .  S
C1687      C1688   1.349       .  D
C1688      H1696   1.086       .  S
C1689      H1697   1.088       .  S
C1689      C1690   1.349       .  D
C1690      H1698   1.086       .  S
C1699      C1707   1.492       .  S
C1699      C1700   1.406       .  A
C1699      C1704   1.407       .  A
C1700      C1701   1.403       .  A
C1700      H1709   1.082       .  S
C1701      C1702   1.407       .  A
C1701      H1710   1.082       .  S
C1702      C1705   1.485       .  S
C1702      C1703   1.403       .  A
C1703      C1704   1.397       .  A
C1703      H1711   1.084       .  S
C1704      H1712   1.082       .  S
C1705      H1713   1.088       .  S
C1705      C1706   1.348       .  D
C1706      H1714   1.086       .  S
C1707      H1715   1.085       .  S
C1707      C1708   1.349       .  D
C1708      H1716   1.082       .  S
C1717      C1725   1.494       .  S
C1717      C1718   1.402       .  A
C1717      C1722   1.411       .  A
C1718      C1719   1.400       .  A
C1718      H1727   1.084       .  S
C1719      C1720   1.411       .  A
C1719      H1728   1.080       .  S
C1720      C1723   1.494       .  S
C1720      C1721   1.402       .  A
C1721      C1722   1.399       .  A
C1721      H1729   1.084       .  S
C1722      H1730   1.080       .  S
C1723      H1731   1.087       .  S
C1723      C1724   1.345       .  D
C1724      H1732   1.083       .  S
C1725      H1733   1.087       .  S
C1725      C1726   1.344       .  D
C1726      H1734   1.083       .  S
C1735      C1743   1.490       .  S
C1735      C1736   1.401       .  A
C1735      C1740   1.410       .  A
C1736      C1737   1.392       .  A
C1736      H1745   1.084       .  S
C1737      C1738   1.404       .  A
C1737      H1746   1.084       .  S
C1738      C1741   1.495       .  S
C1738      C1739   1.412       .  A
C1739      C1740   1.414       .  A
C1739      H1747   1.081       .  S
C1740      H1748   1.082       .  S
C1741      H1749   1.088       .  S
C1741      C1742   1.353       .  D
C1742      H1750   1.085       .  S
C1743      H1751   1.087       .  S
C1743      C1744   1.351       .  D
C1744      H1752   1.085       .  S
C1753      C1761   1.490       .  S
C1753      C1754   1.404       .  A
C1753      C1758   1.407       .  A
C1754      C1755   1.401       .  A
C1754      H1763   1.083       .  S
C1755      C1756   1.408       .  A
C1755      H1764   1.082       .  S
C1756      C1759   1.491       .  S
C1756      C1757   1.405       .  A
C1757      C1758   1.403       .  A
C1757      H1765   1.083       .  S
C1758      H1766   1.082       .  S
C1759      H1767   1.087       .  S
C1759      C1760   1.349       .  D
C1760      H1768   1.086       .  S
C1761      H1769   1.087       .  S
C1761      C1762   1.349       .  D
C1762      H1770   1.086       .  S
C1771      C1779   1.480       .  S
C1771      C1772   1.400       .  A
C1771      C1776   1.408       .  A
C1772      C1773   1.392       .  A
C1772      H1781   1.084       .  S
C1773      C1774   1.405       .  A
C1773      H1782   1.083       .  S
C1774      C1777   1.487       .  S
C1774      C1775   1.405       .  A
C1775      C1776   1.406       .  A
C1775      H1783   1.083       .  S
C1776      H1784   1.083       .  S
C1777      H1785   1.086       .  S
C1777      C1778   1.345       .  D
C1778      H1786   1.087       .  S
C1779      H1787   1.088       .  S
C1779      C1780   1.344       .  D
C1780      H1788   1.086       .  S
C1789      C1797   1.477       .  S
C1789      C1790   1.400       .  A
C1789      C1794   1.406       .  A
C1790      C1791   1.392       .  A
C1790      H1799   1.084       .  S
C1791      C1792   1.406       .  A
C1791      H1800   1.082       .  S
C1792      C1795   1.485       .  S
C1792      C1793   1.405       .  A
C1793      C1794   1.401       .  A
C1793      H1801   1.083       .  S
C1794      H1802   1.082       .  S
C1795      H1803   1.087       .  S
C1795      C1796   1.346       .  D
C1796      H1804   1.085       .  S
C1797      H1805   1.089       .  S
C1797      C1798   1.343       .  D
C1798      H1806   1.086       .  S
C1807      C1815   1.498       .  S
C1807      C1808   1.409       .  A
C1807      C1812   1.408       .  A
C1808      C1809   1.410       .  A
C1808      H1817   1.083       .  S
C1809      C1810   1.407       .  A
C1809      H1818   1.083       .  S
C1810      C1813   1.485       .  S
C1810      C1811   1.401       .  A
C1811      C1812   1.394       .  A
C1811      H1819   1.084       .  S
C1812      H1820   1.082       .  S
C1813      H1821   1.088       .  S
C1813      C1814   1.350       .  D
C1814      H1822   1.086       .  S
C1815      H1823   1.086       .  S
C1815      C1816   1.349       .  D
C1816      H1824   1.086       .  S
