geometry optimzed in LAMMPS
_audit_creation_date              2020-12-01 
_audit_creation_method            'lammps2cif' 
_symmetry_space_group_name_H-M    'P1' 
_symmetry_Int_Tables_number       1 
_symmetry_cell_setting            triclinic 
loop_ 
_symmetry_equiv_pos_as_xyz 
  x,y,z 
_cell_length_a                    71.81592298 
_cell_length_b                    71.83182961979736 
_cell_length_c                    43.650382245934736 
_cell_angle_alpha                 89.76529150887056 
_cell_angle_beta                  90.30945496678122 
_cell_angle_gamma                 120.54974365159491 
loop_ 
_atom_site_label 
_atom_site_type_symbol 
_atom_site_fract_x 
_atom_site_fract_y 
_atom_site_fract_z 
_atom_site_charge 
Zn1        Zn  0.85700571  0.28779566  0.30466442     1.49700
Zn2        Zn  0.88553509  0.27586126  0.26359009     1.49400
Zn3        Zn  0.84378382  0.27405326  0.23465534     1.49100
Zn4        Zn  0.88546605  0.31858674  0.25054700     1.49500
O5          O  0.86777707  0.28894190  0.26342398    -1.83700
O6          O  0.86975745  0.27636680  0.33635284    -0.74400
O7          O  0.87304650  0.24966044  0.23722373    -0.74200
O8          O  0.81516045  0.26411508  0.25565831    -0.73700
O9          O  0.88637496  0.26515203  0.30522058    -0.74400
O10         O  0.82500593  0.26841294  0.30466122    -0.74000
O11         O  0.84252991  0.24689944  0.22011355    -0.74600
O12         O  0.87881890  0.32222545  0.20695120    -0.74000
O13         O  0.91649429  0.29715342  0.25326896    -0.74700
O14         O  0.84779440  0.29222929  0.19676649    -0.74100
O15         O  0.91696196  0.32828519  0.25330279    -0.74600
O16         O  0.88007776  0.33774627  0.27728519    -0.74500
O17         O  0.86176348  0.31673862  0.31674983    -0.74300
C18         C  0.88024403  0.26668179  0.33183312     0.77500
C19         C  0.85525760  0.23951288  0.22264665     0.78000
C20         C  0.81038917  0.26126180  0.28407360     0.77000
C21         C  0.86330090  0.31073749  0.18866431     0.77300
C22         C  0.92679364  0.31773499  0.25269781     0.78500
C23         C  0.87070114  0.33486487  0.30297141     0.77500
Zn24       Zn  0.97456566  0.21344674  0.53292532     1.49700
Zn25       Zn  0.95323629  0.20686126  0.59875121     1.49400
Zn26       Zn  0.92783884  0.17610332  0.54330486     1.49100
Zn27       Zn  0.96463751  0.17144352  0.57348049     1.49500
O28         O  0.95560994  0.19220944  0.56269794    -1.83700
O29         O  0.98941103  0.24284550  0.55161379    -0.74400
O30         O  0.92141621  0.19561134  0.60848300    -0.74200
O31         O  0.92433036  0.19196594  0.50854222    -0.73700
O32         O  0.97065504  0.23989643  0.59338473    -0.74400
O33         O  0.95805406  0.21667942  0.49722752    -0.74000
O34         O  0.90477346  0.17039716  0.57278706    -0.74600
O35         O  0.94112424  0.14035442  0.56177741    -0.74000
O36         O  0.96577400  0.19930460  0.63511955    -0.74700
O37         O  0.92171926  0.14743242  0.52898982    -0.74100
O38         O  0.97222338  0.17375323  0.61925354    -0.74600
O39         O  0.99166781  0.17906088  0.54905901    -0.74500
O40         O  0.99730825  0.20675440  0.51942565    -0.74300
C41         C  0.98535288  0.25150532  0.57397485     0.77500
C42         C  0.90423482  0.17991506  0.59689062     0.78000
C43         C  0.93779897  0.20769321  0.49219594     0.77000
C44         C  0.92633682  0.13424384  0.54134548     0.77300
C45         C  0.97227154  0.18602442  0.64043688     0.78500
C46         C  0.00254938  0.19310939  0.52850619     0.77500
Zn47       Zn  0.94634509  0.39114364  0.90305048     1.49700
Zn48       Zn  0.90044539  0.34972560  0.90911025     1.49400
Zn49       Zn  0.90671697  0.39545359  0.92540090     1.49100
Zn50       Zn  0.90854397  0.38386462  0.85600032     1.49500
O51         O  0.91550099  0.38006449  0.89807516    -1.83700
O52         O  0.95294291  0.36763348  0.91369157    -0.74400
O53         O  0.88770527  0.34556558  0.95161089    -0.74200
O54         O  0.93290738  0.42119924  0.94251513    -0.73700
O55         O  0.92080113  0.33785782  0.90877134    -0.74400
O56         O  0.96037162  0.41642635  0.93214049    -0.74000
O57         O  0.89005637  0.37700092  0.96145346    -0.74600
O58         O  0.89772906  0.40496289  0.85482654    -0.74000
O59         O  0.87691607  0.33289079  0.87844717    -0.74700
O60         O  0.89124354  0.40840161  0.90352674    -0.74100
O61         O  0.88478601  0.35534480  0.83895713    -0.74600
O62         O  0.93525411  0.39646741  0.82917905    -0.74500
O63         O  0.96094803  0.40296418  0.86311000    -0.74300
C64         C  0.94124447  0.34710509  0.91221059     0.77500
C65         C  0.88461170  0.35779255  0.96937024     0.78000
C66         C  0.95291122  0.42741523  0.94416545     0.77000
C67         C  0.89103530  0.41277692  0.87526230     0.77300
C68         C  0.87321729  0.33680088  0.85129020     0.78500
C69         C  0.95511509  0.40394377  0.83588311     0.77500
Zn70       Zn  0.12672074  0.49618736  0.58457941     1.49700
Zn71       Zn  0.08066113  0.45812603  0.55900096     1.49400
Zn72       Zn  0.09549175  0.45423706  0.62668063     1.49100
Zn73       Zn  0.08184963  0.48846147  0.61159180     1.49500
O74         O  0.09654454  0.47431320  0.59529539    -1.83700
O75         O  0.13308794  0.49264059  0.53948440    -0.74400
O76         O  0.06629781  0.42591431  0.56656697    -0.74200
O77         O  0.12570919  0.46365100  0.64144393    -0.73700
O78         O  0.10121121  0.46581585  0.52381424    -0.74400
O79         O  0.14728257  0.49200362  0.61234823    -0.74000
O80         O  0.08096080  0.42361955  0.61035046    -0.74600
O81         O  0.06864143  0.47748805  0.65248741    -0.74000
O82         O  0.05767942  0.46504524  0.54587282    -0.74700
O83         O  0.07716165  0.45257870  0.66308845    -0.74100
O84         O  0.05798235  0.48486807  0.58475060    -0.74600
O85         O  0.10145127  0.51992599  0.61353591    -0.74500
O86         O  0.13234126  0.52699814  0.59187257    -0.74300
C87         C  0.12103763  0.47952460  0.51858989     0.77500
C88         C  0.06866235  0.41469914  0.58726558     0.78000
C89         C  0.14457220  0.47868708  0.63379093     0.77000
C90         C  0.06745660  0.46272371  0.66985768     0.77300
C91         C  0.05039549  0.47577282  0.55919654     0.78500
C92         C  0.12034535  0.53327427  0.60414482     0.77500
Zn93       Zn  0.02456023  0.22498523  0.91344567     1.49700
Zn94       Zn  0.07003380  0.23078839  0.89795987     1.49400
Zn95       Zn  0.06631604  0.27107488  0.92264102     1.49100
Zn96       Zn  0.05766969  0.23239180  0.96828250     1.49500
O97         O  0.05478737  0.23985846  0.92579118    -1.83700
O98         O  0.02010232  0.21131675  0.87162907    -0.74400
O99         O  0.09474958  0.25701131  0.87928315    -0.74200
O100        O  0.04304729  0.27791522  0.91100926    -0.73700
O101        O  0.05137082  0.21344851  0.86141293    -0.74400
O102        O  0.01323979  0.24561886  0.91118673    -0.74000
O103        O  0.09122361  0.28475660  0.89301144    -0.74600
O104        O  0.07051127  0.25896953  0.99600783    -0.74000
O105        O  0.08398240  0.21625457  0.92101493    -0.74700
O106        O  0.07784953  0.28558298  0.96347355    -0.74100
O107        O  0.07787089  0.22028793  0.96976752    -0.74600
O108        O  0.02839391  0.20934087  0.98484252    -0.74500
O109        O  0.00688076  0.20201364  0.94414507    -0.74300
C110        C  0.03207880  0.20799961  0.85373952     0.77500
C111        C  0.10118309  0.27708727  0.87852542     0.78000
C112        C  0.02251317  0.26613191  0.90936037     0.77000
C113        C  0.07812591  0.27902876  0.99053982     0.77300
C114        C  0.08681804  0.21460813  0.94958611     0.78500
C115        C  0.01008905  0.19823522  0.97161035     0.77500
Zn116      Zn  0.13214881  0.43647083  0.24696514     1.49700
Zn117      Zn  0.12880976  0.39136880  0.23366161     1.49400
Zn118      Zn  0.15911803  0.43252148  0.19227418     1.49100
Zn119      Zn  0.17181314  0.43070058  0.26339087     1.49500
O120        O  0.14815246  0.42277166  0.23400016    -1.83700
O121        O  0.10037831  0.41481591  0.24808494    -0.74400
O122        O  0.12520401  0.37948019  0.19101093    -0.74200
O123        O  0.15435243  0.45692603  0.17868228    -0.73700
O124        O  0.09870295  0.38309075  0.24660672    -0.74400
O125        O  0.13688108  0.46020270  0.21813762    -0.74000
O126        O  0.14520890  0.40780268  0.16120161    -0.74600
O127        O  0.20064028  0.44594475  0.24104940    -0.74000
O128        O  0.14027334  0.37636737  0.26030393    -0.74700
O129        O  0.19120258  0.44406932  0.19198723    -0.74100
O130        O  0.16964597  0.40372808  0.28133299    -0.74600
O131        O  0.17046227  0.44786456  0.29999261    -0.74500
O132        O  0.14108269  0.44944817  0.28911526    -0.74300
C133        C  0.08956440  0.39424850  0.24908711     0.77500
C134        C  0.13221177  0.38755159  0.16462597     0.78000
C135        C  0.14561013  0.46635984  0.19191790     0.77000
C136        C  0.20555482  0.44884618  0.21263184     0.77300
C137        C  0.15669725  0.38352136  0.27791023     0.78500
C138        C  0.15652752  0.45311286  0.30725427     0.77500
Zn139      Zn  0.13715322  0.73190828  0.74544084     1.49700
Zn140      Zn  0.17766192  0.73010122  0.76956883     1.49400
Zn141      Zn  0.13403107  0.68685379  0.75291065     1.49100
Zn142      Zn  0.16219760  0.71850884  0.69941185     1.49500
O143        O  0.15287860  0.71676984  0.74175423    -1.83700
O144        O  0.15260875  0.75848563  0.77093431    -0.74400
O145        O  0.17420859  0.71024684  0.80517182    -0.74200
O146        O  0.10304259  0.67997919  0.75524451    -0.73700
O147        O  0.18143639  0.75776846  0.78750516    -0.74400
O148        O  0.10688111  0.71254349  0.75951202    -0.74000
O149        O  0.14253263  0.68116161  0.79434222    -0.74600
O150        O  0.15557349  0.68922158  0.68408565    -0.74000
O151        O  0.20519996  0.74059721  0.74615688    -0.74700
O152        O  0.13617055  0.66725264  0.72200239    -0.74100
O153        O  0.19430408  0.73930864  0.69797137    -0.74600
O154        O  0.14786176  0.73006721  0.67104053    -0.74500
O155        O  0.13352287  0.74200501  0.70493570    -0.74300
C156        C  0.17042600  0.76710651  0.78548311     0.77500
C157        C  0.15865127  0.69150865  0.81229065     0.78000
C158        C  0.09499387  0.69206352  0.75902116     0.77000
C159        C  0.14513615  0.67037725  0.69587009     0.77300
C160        C  0.20928807  0.74614300  0.71810750     0.78500
C161        C  0.13769717  0.73980882  0.67745876     0.77500
Zn162      Zn  0.02696085  0.78978888  0.43233786     1.49700
Zn163      Zn  0.06964993  0.78907878  0.44343450     1.49400
Zn164      Zn  0.07210531  0.83119828  0.41530557     1.49100
Zn165      Zn  0.05907095  0.81833441  0.48564753     1.49500
O166        O  0.05703060  0.80729254  0.44422742    -1.83700
O167        O  0.01680109  0.75783192  0.43327866    -0.74400
O168        O  0.09419906  0.79983741  0.41430313    -0.74200
O169        O  0.05310394  0.82744811  0.37802057    -0.73700
O170        O  0.04789404  0.75832702  0.43412401    -0.74400
O171        O  0.02296384  0.79683440  0.38924856    -0.74000
O172        O  0.09848904  0.83135087  0.39916238    -0.74600
O173        O  0.07918593  0.85058705  0.48572452    -0.74000
O174        O  0.08136137  0.78831840  0.48435466    -0.74700
O175        O  0.08350667  0.86008445  0.43662351    -0.74100
O176        O  0.07049665  0.80494968  0.51612082    -0.74600
O177        O  0.03018610  0.81353942  0.49924996    -0.74500
O178        O  0.00850644  0.79594393  0.46004669    -0.74300
C179        C  0.02737591  0.74798138  0.43259499     0.77500
C180        C  0.10460146  0.81752364  0.39967942     0.78000
C181        C  0.03427103  0.81209066  0.37058012     0.77000
C182        C  0.08667335  0.86510721  0.46498300     0.77300
C183        C  0.07991612  0.79425301  0.51115810     0.78500
C184        C  0.01183188  0.80519987  0.48600349     0.77500
Zn185      Zn  0.86250977  0.57177906  0.80874253     1.49700
Zn186      Zn  0.84935078  0.57301857  0.73893063     1.49400
Zn187      Zn  0.89032443  0.61433358  0.76827796     1.49100
Zn188      Zn  0.89179533  0.57217740  0.75376414     1.49500
O189        O  0.87342083  0.58285227  0.76764982    -1.83700
O190        O  0.83010520  0.55974546  0.80931436    -0.74400
O191        O  0.84935925  0.59854382  0.72069599    -0.74200
O192        O  0.89015033  0.62500643  0.81023097    -0.73700
O193        O  0.82058396  0.55665263  0.76030468    -0.74400
O194        O  0.87588648  0.59611562  0.84052358    -0.74000
O195        O  0.87812130  0.62755125  0.73958059    -0.74600
O196        O  0.92295695  0.59550974  0.75389468    -0.74000
O197        O  0.85176727  0.55654363  0.70315489    -0.74700
O198        O  0.92187926  0.62564032  0.75958045    -0.74100
O199        O  0.88411565  0.56055085  0.71103856    -0.74600
O200        O  0.88827818  0.54807934  0.78077735    -0.74500
O201        O  0.86817006  0.54741933  0.81970350    -0.74300
C202        C  0.81562902  0.55427312  0.78862311     0.77500
C203        C  0.86127146  0.61897210  0.72272723     0.78000
C204        C  0.88519004  0.61656823  0.83677570     0.77000
C205        C  0.93245572  0.61600232  0.75570346     0.77300
C206        C  0.86742572  0.55435379  0.69429176     0.78500
C207        C  0.87854107  0.53986640  0.80587801     0.77500
Zn208      Zn  0.94639923  0.77020992  0.10599993     1.49700
Zn209      Zn  0.99030391  0.77267072  0.09063245     1.49400
Zn210      Zn  0.94677164  0.72868028  0.08080069     1.49100
Zn211      Zn  0.95832414  0.76869331  0.03646689     1.49500
O212        O  0.96039380  0.76002132  0.07821067    -1.83700
O213        O  0.96494238  0.78512549  0.14313218    -0.74400
O214        O  0.99945772  0.75040377  0.08975926    -0.74200
O215        O  0.92153859  0.71607672  0.10973147    -0.73700
O216        O  0.99500332  0.78463166  0.13379265    -0.74400
O217        O  0.91943031  0.74494086  0.12208534    -0.74000
O218        O  0.96826455  0.71934599  0.09131860    -0.74600
O219        O  0.94615982  0.74293911  0.00739168    -0.74000
O220        O  0.00914496  0.79608833  0.06115680    -0.74700
O221        O  0.93508249  0.71535401  0.03969664    -0.74100
O222        O  0.98776662  0.79214975  0.02170138    -0.74600
O223        O  0.93846850  0.78101439  0.03575339    -0.74500
O224        O  0.93586610  0.78802193  0.08452218    -0.74300
C225        C  0.98347471  0.78866883  0.15161289     0.77500
C226        C  0.98886589  0.72984411  0.09141548     0.78000
C227        C  0.91185943  0.72465675  0.12263355     0.77000
C228        C  0.93673951  0.72265431  0.01263011     0.77300
C229        C  0.00633528  0.80159766  0.03451147     0.78500
C230        C  0.93166089  0.78869242  0.05628778     0.77500
Zn231      Zn  0.07813714  0.58336134  0.11432281     1.49700
Zn232      Zn  0.09036998  0.63072549  0.13155968     1.49400
Zn233      Zn  0.12369770  0.62341715  0.09177535     1.49100
Zn234      Zn  0.07787046  0.61437152  0.06349952     1.49500
O235        O  0.09286814  0.61308873  0.10012328    -1.83700
O236        O  0.06111060  0.57894658  0.15299403    -0.74400
O237        O  0.11939406  0.65257597  0.14837011    -0.74200
O238        O  0.13053807  0.59945709  0.10127857    -0.73700
O239        O  0.06990428  0.61247953  0.16490066    -0.74400
O240        O  0.09914317  0.57347693  0.11998750    -0.74000
O241        O  0.14275387  0.64935250  0.11897536    -0.74600
O242        O  0.09952913  0.62839936  0.03053023    -0.74000
O243        O  0.07726521  0.64735213  0.11480404    -0.74700
O244        O  0.13104066  0.63340164  0.04691364    -0.74100
O245        O  0.06386985  0.63249973  0.06964188    -0.74600
O246        O  0.05600294  0.58472625  0.04731112    -0.74500
O247        O  0.05746085  0.56342201  0.08277458    -0.74300
C248        C  0.05915980  0.59221937  0.16995873     0.77500
C249        C  0.13874598  0.65886007  0.14038728     0.78000
C250        C  0.11876122  0.58061753  0.11276622     0.77000
C251        C  0.11935088  0.63482122  0.02589322     0.77300
C252        C  0.06629719  0.64564350  0.09093360     0.78500
C253        C  0.05016317  0.56590656  0.05745389     0.77500
Zn254      Zn  0.90147533  0.54391868  0.42108243     1.49700
Zn255      Zn  0.90420534  0.51750730  0.36531928     1.49400
Zn256      Zn  0.94499690  0.54423347  0.40866123     1.49100
Zn257      Zn  0.90421802  0.50190343  0.43469838     1.49500
O258        O  0.91365509  0.52676441  0.40740369    -1.83700
O259        O  0.87865661  0.54149008  0.39206951    -0.74400
O260        O  0.92941557  0.53082778  0.33530415    -0.74200
O261        O  0.95490899  0.57509332  0.41865104    -0.73700
O262        O  0.88061607  0.52347117  0.35214108    -0.74400
O263        O  0.92428072  0.57528054  0.42404312    -0.74000
O264        O  0.95720962  0.54546648  0.36743179    -0.74600
O265        O  0.92988436  0.50160784  0.45288789    -0.74000
O266        O  0.89136685  0.48564830  0.36329452    -0.74700
O267        O  0.95827727  0.53237518  0.43772355    -0.74100
O268        O  0.88741260  0.47397794  0.41133041    -0.74600
O269        O  0.88766777  0.50338439  0.47101892    -0.74500
O270        O  0.88833682  0.53422544  0.46255404    -0.74300
C271        C  0.87221221  0.53309052  0.36569815     0.77500
C272        C  0.94975056  0.54063505  0.34034185     0.78000
C273        C  0.94482457  0.58516448  0.42298304     0.77000
C274        C  0.95020010  0.51477755  0.45280025     0.77300
C275        C  0.88506822  0.47032072  0.38259534     0.78500
C276        C  0.88369160  0.51797395  0.47947114     0.77500
Zn277      Zn  0.69140907  0.56502435  0.24891897     1.49700
Zn278      Zn  0.72364263  0.57098401  0.30310050     1.49400
Zn279      Zn  0.73781014  0.57247085  0.23251897     1.49100
Zn280      Zn  0.73352572  0.61088069  0.26153881     1.49500
O281        O  0.72162167  0.57975113  0.26138806    -1.83700
O282        O  0.67289597  0.54200445  0.27926079    -0.74400
O283        O  0.74497724  0.56110659  0.30338625    -0.74200
O284        O  0.71897845  0.55449157  0.19663517    -0.73700
O285        O  0.69521770  0.54590355  0.31737423    -0.74400
O286        O  0.68718488  0.55105577  0.20742520    -0.74000
O287        O  0.75238166  0.55834153  0.25487220    -0.74600
O288        O  0.75838722  0.62623171  0.23286884    -0.74000
O289        O  0.73449686  0.59559514  0.33386252    -0.74700
O290        O  0.76210864  0.59971444  0.21402548    -0.74100
O291        O  0.74459631  0.62367774  0.30305689    -0.74600
O292        O  0.71088736  0.61800208  0.25065147    -0.74500
O293        O  0.68080516  0.58602928  0.24622669    -0.74300
C294        C  0.67647471  0.53625043  0.30520896     0.77500
C295        C  0.75475882  0.55634919  0.28349181     0.78000
C296        C  0.69934138  0.54800102  0.18953131     0.77000
C297        C  0.76833180  0.61971990  0.21605639     0.77300
C298        C  0.74333454  0.61591478  0.32971068     0.78500
C299        C  0.69057619  0.60659723  0.24646092     0.77500
Zn300      Zn  0.82862792  0.74273627  0.55969741     1.49700
Zn301      Zn  0.79570463  0.74124938  0.60861982     1.49400
Zn302      Zn  0.83492752  0.78737475  0.58497414     1.49100
Zn303      Zn  0.79573312  0.75640472  0.53941682     1.49500
O304        O  0.81375687  0.75723310  0.57357788    -1.83700
O305        O  0.82654445  0.72142365  0.58997823    -0.74400
O306        O  0.80316448  0.76153736  0.64415935    -0.74200
O307        O  0.86591059  0.79414511  0.57669068    -0.73700
O308        O  0.80183096  0.71782099  0.62350606    -0.74400
O309        O  0.85990068  0.76345819  0.55535756    -0.74000
O310        O  0.83133611  0.79303254  0.63022869    -0.74600
O311        O  0.80552772  0.78643974  0.52395253    -0.74000
O312        O  0.76375857  0.72879887  0.59842438    -0.74700
O313        O  0.83000670  0.80776603  0.55839252    -0.74100
O314        O  0.76494243  0.74325791  0.55292828    -0.74600
O315        O  0.79424853  0.73676287  0.50504888    -0.74500
O316        O  0.81631556  0.72575795  0.52114094    -0.74300
C317        C  0.81524636  0.71261055  0.61361002     0.77500
C318        C  0.81753403  0.78096836  0.65037746     0.78000
C319        C  0.87274880  0.78273974  0.56405061     0.77000
C320        C  0.81848515  0.80519936  0.53464297     0.77300
C321        C  0.75425205  0.73190275  0.57584927     0.78500
C322        C  0.80254269  0.72486276  0.50193679     0.77500
Zn323      Zn  0.78262249  0.79666292  0.92552264     1.49700
Zn324      Zn  0.77883736  0.83748506  0.90779206     1.49400
Zn325      Zn  0.73905168  0.79522628  0.93547114     1.49100
Zn326      Zn  0.77945582  0.82520299  0.97878976     1.49500
O327        O  0.77019582  0.81390806  0.93712600    -1.83700
O328        O  0.79483520  0.80432602  0.88285553    -0.74400
O329        O  0.75238209  0.83701213  0.89133590    -0.74200
O330        O  0.72954649  0.76417021  0.92752979    -0.73700
O331        O  0.79462594  0.83435643  0.87110801    -0.74400
O332        O  0.76067580  0.76481351  0.92746986    -0.74000
O333        O  0.72460428  0.80613641  0.90749448    -0.74600
O334        O  0.75398948  0.81171201  0.00884474    -0.74000
O335        O  0.79518468  0.86656732  0.92892544    -0.74700
O336        O  0.72699623  0.79442148  0.97593231    -0.74100
O337        O  0.79036020  0.85711928  0.97807406    -0.74600
O338        O  0.80412567  0.82080677  0.99313634    -0.74500
O339        O  0.80614708  0.80173508  0.95457721    -0.74300
C340        C  0.79889890  0.81964944  0.86424268     0.77500
C341        C  0.73210405  0.82383946  0.89288855     0.78000
C342        C  0.74009132  0.75433661  0.92738433     0.77000
C343        C  0.73376940  0.80047463  0.00301619     0.77300
C344        C  0.79630980  0.87148676  0.95721872     0.78500
C345        C  0.81277660  0.81110427  0.98033343     0.77500
Zn346      Zn  0.56571939  0.68429007  0.23755666     1.49700
Zn347      Zn  0.57045322  0.72857706  0.25748822     1.49400
Zn348      Zn  0.61042943  0.72688740  0.23117978     1.49100
Zn349      Zn  0.57139740  0.71795182  0.18620570     1.49500
O350        O  0.57945701  0.71461314  0.22785892    -1.83700
O351        O  0.55430544  0.67880426  0.28068064    -0.74400
O352        O  0.59641084  0.75373620  0.27703424    -0.74200
O353        O  0.61820986  0.70455562  0.24082266    -0.73700
O354        O  0.55373335  0.70853168  0.29249869    -0.74400
O355        O  0.58692850  0.67397163  0.23447266    -0.74000
O356        O  0.62427548  0.75102565  0.26162757    -0.74600
O357        O  0.59746242  0.73129018  0.15800406    -0.74000
O358        O  0.55406296  0.74090892  0.23667086    -0.74700
O359        O  0.62405370  0.73862068  0.19087146    -0.74100
O360        O  0.55908085  0.73756822  0.18727357    -0.74600
O361        O  0.54770887  0.68927213  0.16910534    -0.74500
O362        O  0.54133336  0.66706412  0.20841687    -0.74300
C363        C  0.54997430  0.68966548  0.29935089     0.77500
C364        C  0.61656062  0.76037167  0.27737362     0.78000
C365        C  0.60734621  0.68410464  0.23820328     0.77000
C366        C  0.61747182  0.73900256  0.16392586     0.77300
C367        C  0.55225957  0.74465309  0.20857770     0.78500
C368        C  0.53665482  0.67078961  0.18177644     0.77500
Zn369      Zn  0.54697799  0.64876107  0.57682412     1.49700
Zn370      Zn  0.52303179  0.61668727  0.63212961     1.49400
Zn371      Zn  0.50766194  0.60072485  0.56401175     1.49100
Zn372      Zn  0.55318587  0.60874409  0.58847633     1.49500
O373        O  0.53265192  0.61872104  0.59018971    -1.83700
O374        O  0.54035356  0.66660956  0.60593180    -0.74400
O375        O  0.49147543  0.59562697  0.63518754    -0.74200
O376        O  0.50887599  0.61724600  0.52525200    -0.73700
O377        O  0.52675557  0.64472445  0.64612349    -0.74400
O378        O  0.53668872  0.65020167  0.53432795    -0.74000
O379        O  0.47931476  0.58938640  0.58727274    -0.74600
O380        O  0.54183932  0.58176487  0.56305800    -0.74000
O381        O  0.53902450  0.60823210  0.66171704    -0.74700
O382        O  0.50871563  0.57436994  0.55049551    -0.74100
O383        O  0.55948741  0.60197122  0.63064990    -0.74600
O384        O  0.58207708  0.63200926  0.57348844    -0.74500
O385        O  0.57968080  0.66158861  0.57465901    -0.74300
C386        C  0.53302642  0.66283452  0.63321800     0.77500
C387        C  0.47589002  0.58715990  0.61609967     0.78000
C388        C  0.52179433  0.63666086  0.51662706     0.77000
C389        C  0.52347236  0.56947783  0.55070084     0.77300
C390        C  0.55315015  0.60282418  0.65750238     0.78500
C391        C  0.59092111  0.65249243  0.57198462     0.77500
Zn392      Zn  0.64665359  0.55498278  0.86854080     1.49700
Zn393      Zn  0.59847442  0.51892324  0.88019698     1.49400
Zn394      Zn  0.63637599  0.51264902  0.90768509     1.49100
Zn395      Zn  0.62603918  0.54797351  0.93491603     1.49500
O396        O  0.62714193  0.53355555  0.89801550    -1.83700
O397        O  0.63034385  0.55910354  0.83363698    -0.74400
O398        O  0.59018391  0.48899911  0.86905867    -0.74200
O399        O  0.66290482  0.51974600  0.88224689    -0.73700
O400        O  0.59629554  0.53446579  0.84350582    -0.74400
O401        O  0.66836137  0.54735253  0.85276510    -0.74000
O402        O  0.61272687  0.48217144  0.89529620    -0.74600
O403        O  0.63722537  0.53884179  0.97023849    -0.74000
O404        O  0.57610209  0.51645197  0.90967434    -0.74700
O405        O  0.64384359  0.51363102  0.95352595    -0.74100
O406        O  0.59552558  0.53940858  0.94645840    -0.74600
O407        O  0.64477122  0.58032948  0.93126201    -0.74500
O408        O  0.66279586  0.58413548  0.88836758    -0.74300
C409        C  0.61023135  0.55020413  0.82756477     0.77500
C410        C  0.59617252  0.47598898  0.87807415     0.78000
C411        C  0.67339346  0.53342328  0.86109009     0.77000
C412        C  0.64326528  0.52524562  0.97520435     0.77300
C413        C  0.57730095  0.52587802  0.93480163     0.78500
C414        C  0.65943709  0.59220082  0.91213340     0.77500
Zn415      Zn  0.50703398  0.39794341  0.43584865     1.49700
Zn416      Zn  0.49534006  0.38494376  0.36424348     1.49400
Zn417      Zn  0.46724867  0.35253260  0.41687218     1.49100
Zn418      Zn  0.46505498  0.39505998  0.40519547     1.49500
O419        O  0.48382969  0.38280119  0.40548935    -1.83700
O420        O  0.53625940  0.41032860  0.41558388    -0.74400
O421        O  0.48940384  0.35589897  0.34862540    -0.74200
O422        O  0.47462700  0.34780842  0.45948662    -0.73700
O423        O  0.52756261  0.40425966  0.36615929    -0.74400
O424        O  0.50377017  0.37873523  0.47245944    -0.74000
O425        O  0.47273515  0.33418605  0.38807835    -0.74600
O426        O  0.43433069  0.37235966  0.41533468    -0.74000
O427        O  0.48348592  0.39782498  0.33356870    -0.74700
O428        O  0.43545959  0.34201570  0.41640486    -0.74100
O429        O  0.46422467  0.40659916  0.36343828    -0.74600
O430        O  0.47584823  0.42021794  0.43397999    -0.74500
O431        O  0.50608988  0.42354207  0.45299258    -0.74300
C432        C  0.54167486  0.41265651  0.38741022     0.77500
C433        C  0.48108333  0.33745025  0.36153062     0.78000
C434        C  0.48936275  0.35928415  0.47878881     0.77000
C435        C  0.42488189  0.35183336  0.41725837     0.77300
C436        C  0.47169547  0.40620904  0.33722345     0.78500
C437        C  0.49272365  0.43017030  0.45061882     0.77500
Zn438      Zn  0.37538806  0.45003738  0.12899360     1.49700
Zn439      Zn  0.38201348  0.48944548  0.08609796     1.49400
Zn440      Zn  0.42197391  0.48587405  0.10933239     1.49100
Zn441      Zn  0.39124198  0.45306787  0.05947860     1.49500
O442        O  0.39231822  0.46951257  0.09581417    -1.83700
O443        O  0.35176982  0.45580639  0.14273430    -0.74400
O444        O  0.40573742  0.52075354  0.09253376    -0.74200
O445        O  0.42745258  0.47281177  0.14654677    -0.73700
O446        O  0.35685505  0.48332137  0.11325104    -0.74400
O447        O  0.39442643  0.45096631  0.16446381    -0.74000
O448        O  0.43123178  0.51676158  0.11558368    -0.74600
O449        O  0.42119146  0.46335982  0.04191647    -0.74000
O450        O  0.37090703  0.48505950  0.04229784    -0.74700
O451        O  0.44178796  0.48752738  0.07680597    -0.74100
O452        O  0.37476656  0.45793167  0.02620742    -0.74600
O453        O  0.37581811  0.42100078  0.06880718    -0.74500
O454        O  0.36155258  0.41936023  0.11446625    -0.74300
C455        C  0.34641029  0.46946732  0.13411901     0.77500
C456        C  0.42417447  0.52867719  0.10551460     0.78000
C457        C  0.41489055  0.45944612  0.16655919     0.77000
C458        C  0.43965722  0.47812595  0.05142270     0.77300
C459        C  0.36839169  0.47136668  0.02178434     0.78500
C460        C  0.36400961  0.41008169  0.09132066     0.77500
Zn461      Zn  0.21913000  0.22981494  0.42292058     1.49700
Zn462      Zn  0.22275151  0.27496523  0.42779627     1.49400
Zn463      Zn  0.17938333  0.23452315  0.40273772     1.49100
Zn464      Zn  0.19187918  0.23626286  0.47349358     1.49500
O465        O  0.20309971  0.24397661  0.43186633    -1.83700
O466        O  0.25114511  0.25056029  0.42471875    -0.74400
O467        O  0.21132220  0.28870951  0.39828755    -0.74200
O468        O  0.18202611  0.21706951  0.36831066    -0.73700
O469        O  0.25299145  0.28201622  0.41690781    -0.74400
O470        O  0.21204165  0.21715470  0.38086163    -0.74000
O471        O  0.18027403  0.26041231  0.38335100    -0.74600
O472        O  0.16009355  0.22582883  0.47312788    -0.74000
O473        O  0.22598662  0.28888063  0.46855771    -0.74700
O474        O  0.15042621  0.21886992  0.42415371    -0.74100
O475        O  0.20687440  0.26229946  0.50145818    -0.74600
O476        O  0.19448637  0.21123784  0.49023167    -0.74500
O477        O  0.21148092  0.20569782  0.45226535    -0.74300
C478        C  0.26212531  0.27083041  0.41977087     0.77500
C479        C  0.19359361  0.28068581  0.38335276     0.78000
C480        C  0.19665910  0.21258310  0.36214116     0.77000
C481        C  0.14559618  0.21861340  0.45229678     0.77300
C482        C  0.21955114  0.28230930  0.49570748     0.78500
C483        C  0.20195895  0.20029925  0.47801424     0.77500
Zn484      Zn  0.30859127  0.42357500  0.70723400     1.49700
Zn485      Zn  0.29729855  0.45446676  0.74686636     1.49400
Zn486      Zn  0.26011504  0.41006611  0.71908635     1.49100
Zn487      Zn  0.28829574  0.40836371  0.77315275     1.49500
O488        O  0.28880495  0.42440512  0.73682060    -1.83700
O489        O  0.33046556  0.45355722  0.69398230    -0.74400
O490        O  0.27398362  0.46139428  0.73345733    -0.74200
O491        O  0.25858914  0.39400448  0.68125576    -0.73700
O492        O  0.32435178  0.47510337  0.72325747    -0.74400
O493        O  0.29277802  0.40526136  0.67050688    -0.74000
O494        O  0.25109924  0.43132124  0.70852327    -0.74600
O495        O  0.25823189  0.38464544  0.78346948    -0.74000
O496        O  0.30412063  0.46013323  0.79250829    -0.74700
O497        O  0.23825434  0.38813082  0.74758566    -0.74100
O498        O  0.29832528  0.42822522  0.80909529    -0.74600
O499        O  0.30756939  0.39553255  0.76878178    -0.74500
O500        O  0.32436939  0.40950745  0.72488478    -0.74300
C501        C  0.33524028  0.47240246  0.70256802     0.77500
C502        C  0.25736147  0.45065286  0.71642286     0.78000
C503        C  0.27272786  0.39367732  0.66427345     0.77000
C504        C  0.23988816  0.37913092  0.77176787     0.77300
C505        C  0.30384265  0.44783525  0.81392646     0.78500
C506        C  0.32143084  0.39800884  0.74864198     0.77500
Zn507      Zn  0.28056596  0.20521194  0.07608809     1.49700
Zn508      Zn  0.23969906  0.16379460  0.10215675     1.49400
Zn509      Zn  0.23830638  0.20647766  0.08776535     1.49100
Zn510      Zn  0.23906287  0.17882439  0.03230564     1.49500
O511        O  0.24925143  0.18831878  0.07431166    -1.83700
O512        O  0.29391691  0.19198936  0.10232627    -0.74400
O513        O  0.22449342  0.16668325  0.13938591    -0.74200
O514        O  0.26176707  0.23786364  0.08801669    -0.73700
O515        O  0.26508303  0.16195933  0.11831453    -0.74400
O516        O  0.29168613  0.23607734  0.08776994    -0.74000
O517        O  0.22718443  0.19839340  0.13042982    -0.74600
O518        O  0.21442669  0.18441186  0.02076451    -0.74000
O519        O  0.22199507  0.13583460  0.07937839    -0.74700
O520        O  0.21374269  0.20273041  0.06104510    -0.74100
O521        O  0.22686474  0.14655227  0.03069720    -0.74600
O522        O  0.26443700  0.19320056  0.00190032    -0.74500
O523        O  0.29198060  0.20743003  0.03458727    -0.74300
C524        C  0.28550946  0.17413936  0.11680186     0.77500
C525        C  0.22197660  0.18224758  0.14786125     0.78000
C526        C  0.28230545  0.24703592  0.08920561     0.77000
C527        C  0.20607688  0.19382812  0.03525130     0.77300
C528        C  0.22024227  0.13158156  0.05081786     0.78500
C529        C  0.28477195  0.20331662  0.00733871     0.77500
Zn530      Zn  0.41550012  0.28750225  0.73649936     1.49700
Zn531      Zn  0.41738687  0.25784842  0.78808754     1.49400
Zn532      Zn  0.46123186  0.29589840  0.76110902     1.49100
Zn533      Zn  0.43017184  0.30542276  0.80457593     1.49500
O534        O  0.43134939  0.28701564  0.77248043    -1.83700
O535        O  0.39278519  0.25745266  0.72335529    -0.74400
O536        O  0.43815367  0.24778819  0.79318802    -0.74200
O537        O  0.46712883  0.30472641  0.71584850    -0.73700
O538        O  0.39525588  0.23700056  0.75941782    -0.74400
O539        O  0.43551018  0.30022715  0.70103268    -0.74000
O540        O  0.46833731  0.27222125  0.77011703    -0.74600
O541        O  0.46057073  0.32720974  0.81874103    -0.74000
O542        O  0.40181977  0.25444760  0.82692420    -0.74700
O543        O  0.48128473  0.32145223  0.78702240    -0.74100
O544        O  0.41124658  0.28776968  0.84037465    -0.74600
O545        O  0.41549828  0.32120895  0.78848795    -0.74500
O546        O  0.40200280  0.30579287  0.74346543    -0.74300
C547        C  0.38705360  0.23896349  0.73470734     0.77500
C548        C  0.45719597  0.25416550  0.78386567     0.78000
C549        C  0.45503537  0.30586987  0.69527483     0.77000
C550        C  0.47920160  0.33193326  0.80892247     0.77300
C551        C  0.40036145  0.26743240  0.84501775     0.78500
C552        C  0.40416156  0.31888856  0.76466860     0.77500
Zn553      Zn  0.51399758  0.92252927  0.11612235     1.49700
Zn554      Zn  0.50594964  0.87735602  0.09016436     1.49400
Zn555      Zn  0.54420269  0.92320667  0.06347191     1.49100
Zn556      Zn  0.54774789  0.90819608  0.12985382     1.49500
O557        O  0.52770493  0.90752007  0.09954207    -1.83700
O558        O  0.48286064  0.90201628  0.12297444    -0.74400
O559        O  0.50961556  0.87056490  0.04580572    -0.74200
O560        O  0.53647174  0.94530704  0.04916923    -0.73700
O561        O  0.47538986  0.87174421  0.09869910    -0.74400
O562        O  0.51442677  0.94359234  0.08577296    -0.74000
O563        O  0.53656191  0.90218542  0.02904150    -0.74600
O564        O  0.57732377  0.92047012  0.11297767    -0.74000
O565        O  0.51041206  0.85701576  0.11750214    -0.74700
O566        O  0.57657619  0.93762227  0.07114236    -0.74100
O567        O  0.53857735  0.87894866  0.14640479    -0.74600
O568        O  0.55231302  0.92858238  0.16369459    -0.74500
O569        O  0.52872541  0.93925256  0.15448711    -0.74300
C570        C  0.46935411  0.88317400  0.11326183     0.77500
C571        C  0.52276014  0.88226755  0.02480537     0.78000
C572        C  0.52388762  0.95114178  0.06036003     0.77000
C573        C  0.58705467  0.93358669  0.09118841     0.77300
C574        C  0.52389830  0.86000737  0.13878198     0.78500
C575        C  0.54431064  0.94031739  0.16995141     0.77500
Zn576      Zn  0.64654102  0.08979685  0.36831312     1.49700
Zn577      Zn  0.59742774  0.07515776  0.37967572     1.49400
Zn578      Zn  0.62552752  0.07465264  0.43467020     1.49100
Zn579      Zn  0.63404261  0.11984231  0.40632471     1.49500
O580        O  0.62608298  0.09001216  0.39740105    -1.83700
O581        O  0.63102885  0.07057953  0.33212713    -0.74400
O582        O  0.57543583  0.05415738  0.40930732    -0.74200
O583        O  0.64408376  0.06103345  0.43005667    -0.73700
O584        O  0.59650019  0.05923587  0.34185366    -0.74400
O585        O  0.66201487  0.07603470  0.38712475    -0.74000
O586        O  0.59511016  0.05189471  0.44682797    -0.74600
O587        O  0.64204972  0.12682501  0.45094909    -0.74000
O588        O  0.58784088  0.09580570  0.36896608    -0.74700
O589        O  0.63717127  0.09570402  0.46952809    -0.74100
O590        O  0.61032934  0.12593672  0.39377679    -0.74600
O591        O  0.66028171  0.14042717  0.38230427    -0.74500
O592        O  0.66871001  0.12001759  0.35449239    -0.74300
C593        C  0.61101816  0.05902467  0.32558423     0.77500
C594        C  0.57680648  0.04632044  0.43483299     0.78000
C595        C  0.65842676  0.06398597  0.41040633     0.77000
C596        C  0.64278625  0.11548320  0.47291670     0.77300
C597        C  0.59354384  0.11491613  0.37722178     0.78500
C598        C  0.67227296  0.13857822  0.36269249     0.77500
Zn599      Zn  0.83269104  0.06812584  0.10444358     1.49700
Zn600      Zn  0.78923444  0.06449102  0.07754875     1.49400
Zn601      Zn  0.81976897  0.05584386  0.03373831     1.49100
Zn602      Zn  0.79294140  0.02278818  0.08675054     1.49500
O603        O  0.80875614  0.05299821  0.07544523    -1.83700
O604        O  0.83034984  0.09175180  0.12460068    -0.74400
O605        O  0.78809591  0.07723027  0.03690092    -0.74200
O606        O  0.85181355  0.07697160  0.03404222    -0.73700
O607        O  0.79922408  0.08813331  0.10912029    -0.74400
O608        O  0.86164303  0.08279557  0.08303628    -0.74000
O609        O  0.80612736  0.06804211  0.00511608    -0.74600
O610        O  0.79747146  0.00510150  0.05615539    -0.74000
O611        O  0.75856016  0.04086391  0.08629530    -0.74700
O612        O  0.81501439  0.02712148  0.01740011    -0.74100
O613        O  0.76119552  0.01144774  0.08819986    -0.74600
O614        O  0.80196755  0.01777475  0.12806094    -0.74500
O615        O  0.83161088  0.04881293  0.13920747    -0.74300
C616        C  0.81647289  0.09774916  0.12511209     0.77500
C617        C  0.79473869  0.07674555  0.01009607     0.78000
C618        C  0.86636000  0.08592436  0.05465834     0.77000
C619        C  0.80600882  0.00842498  0.02976088     0.77300
C620        C  0.74983675  0.02040975  0.08845427     0.78500
C621        C  0.81765081  0.02933933  0.14602974     0.77500
Zn622      Zn  0.72086255  0.12056844  0.72121100     1.49700
Zn623      Zn  0.71694672  0.16085449  0.74687643     1.49400
Zn624      Zn  0.70745920  0.12113439  0.79094850     1.49100
Zn625      Zn  0.75518112  0.15293512  0.76820421     1.49500
O626        O  0.72490852  0.13892630  0.75666349    -1.83700
O627        O  0.70805394  0.12884935  0.68692762    -0.74400
O628        O  0.69261317  0.15749697  0.77457178    -0.74200
O629        O  0.69041086  0.08973944  0.77889344    -0.73700
O630        O  0.70659300  0.15753093  0.70263410    -0.74400
O631        O  0.70125900  0.08896494  0.73162766    -0.74000
O632        O  0.68649623  0.13016534  0.80506637    -0.74600
O633        O  0.75953343  0.14242128  0.80870007    -0.74000
O634        O  0.74280506  0.19125603  0.75279352    -0.74700
O635        O  0.72619923  0.12225298  0.82645470    -0.74100
O636        O  0.76830345  0.18485130  0.76948917    -0.74600
O637        O  0.77248754  0.14792567  0.73756859    -0.74500
O638        O  0.74900768  0.12485932  0.70402495    -0.74300
C639        C  0.70388823  0.14384274  0.68198107     0.77500
C640        C  0.68222482  0.14458850  0.79649327     0.78000
C641        C  0.69015235  0.07925620  0.75527849     0.77000
C642        C  0.74655200  0.13045707  0.82946100     0.77300
C643        C  0.76202794  0.19796118  0.76227172     0.78500
C644        C  0.76837427  0.13678828  0.71333334     0.77500
Zn645      Zn  0.74408597  0.94600419  0.39488650     1.49700
Zn646      Zn  0.78979874  0.95479328  0.42125272     1.49400
Zn647      Zn  0.75807190  0.96336465  0.46336218     1.49100
Zn648      Zn  0.74546535  0.91650757  0.44679191     1.49500
O649        O  0.75964612  0.94552764  0.43122413    -1.83700
O650        O  0.76528815  0.96086628  0.36105389    -0.74400
O651        O  0.80952273  0.98108286  0.44692502    -0.74200
O652        O  0.74464528  0.97957393  0.44631161    -0.73700
O653        O  0.79637730  0.96391693  0.37614577    -0.74400
O654        O  0.72971129  0.96360679  0.40212463    -0.74000
O655        O  0.78789751  0.98528919  0.47878124    -0.74600
O656        O  0.72605741  0.91221883  0.48222277    -0.74000
O657        O  0.79714095  0.93168443  0.43351634    -0.74700
O658        O  0.73760374  0.94559436  0.49786796    -0.74100
O659        O  0.76740169  0.90898493  0.45928515    -0.74600
O660        O  0.72661411  0.89546748  0.41523639    -0.74500
O661        O  0.72235385  0.91557396  0.38043055    -0.74300
C662        C  0.78493985  0.96659107  0.35603585     0.77500
C663        C  0.80679019  0.99099360  0.46905067     0.78000
C664        C  0.73274698  0.97711923  0.42321123     0.77000
C665        C  0.72495611  0.92525430  0.50069944     0.77300
C666        C  0.78675472  0.91544159  0.45126876     0.78500
C667        C  0.71796436  0.89713171  0.39070794     0.77500
Zn668      Zn  0.59894742  0.84409591  0.72943323     1.49700
Zn669      Zn  0.55204083  0.83503931  0.75174766     1.49400
Zn670      Zn  0.59645947  0.87303132  0.78171619     1.49100
Zn671      Zn  0.58428025  0.87714093  0.71206019     1.49500
O672        O  0.58266724  0.85720025  0.74389426    -1.83700
O673        O  0.57902903  0.81259948  0.72399960    -0.74400
O674        O  0.54430560  0.83544614  0.79690110    -0.74200
O675        O  0.62019852  0.86792240  0.79649072    -0.73700
O676        O  0.54651735  0.80497478  0.73991927    -0.74400
O677        O  0.62133161  0.84724671  0.75987239    -0.74000
O678        O  0.57505745  0.86244360  0.81571190    -0.74600
O679        O  0.59855379  0.90718259  0.72903677    -0.74000
O680        O  0.53198056  0.84155157  0.72654592    -0.74700
O681        O  0.60821112  0.90516198  0.77671431    -0.74100
O682        O  0.55450701  0.86979185  0.69820763    -0.74600
O683        O  0.60234582  0.87844137  0.67544860    -0.74500
O684        O  0.61410120  0.85652761  0.68926159    -0.74300
C685        C  0.55920960  0.79904892  0.72912278     0.77500
C686        C  0.55543175  0.84765289  0.81908850     0.78000
C687        C  0.62792588  0.85691551  0.78542383     0.77000
C688        C  0.60744401  0.91618921  0.75430959     0.77300
C689        C  0.53535758  0.85581919  0.70632160     0.78500
C690        C  0.61379062  0.86986385  0.67025859     0.77500
Zn691      Zn  0.18291202  0.95682562  0.92319559     1.49700
Zn692      Zn  0.22453797  0.96907530  0.96476520     1.49400
Zn693      Zn  0.19224733  0.92046190  0.94795535     1.49100
Zn694      Zn  0.22242328  0.95227422  0.89622117     1.49500
O695        O  0.20550819  0.94982013  0.93274146    -1.83700
O696        O  0.18647000  0.98137400  0.94975634    -0.74400
O697        O  0.22741425  0.95273113  0.00042376    -0.74200
O698        O  0.16052549  0.90743958  0.95237908    -0.73700
O699        O  0.21417057  0.98854248  0.98013961    -0.74400
O700        O  0.15289069  0.93130569  0.93232659    -0.74000
O701        O  0.20483109  0.91854982  0.98808738    -0.74600
O702        O  0.21827486  0.92316928  0.88304702    -0.74000
O703        O  0.25460663  0.98760799  0.94886009    -0.74700
O704        O  0.19601618  0.90152238  0.91880052    -0.74100
O705        O  0.25437063  0.97409829  0.90314255    -0.74600
O706        O  0.21207610  0.96273462  0.86095614    -0.74500
O707        O  0.18493890  0.96618061  0.87862753    -0.74300
C708        C  0.19924823  0.99207226  0.97160971     0.77500
C709        C  0.21874541  0.93263282  0.00618042     0.78000
C710        C  0.14695597  0.91302123  0.94471287     0.77000
C711        C  0.20656739  0.90429662  0.89431374     0.77300
C712        C  0.26448328  0.98730070  0.92491914     0.78500
C713        C  0.19746486  0.96759508  0.85696941     0.77500
Zn714      Zn  0.27841362  0.87902010  0.24951340     1.49700
Zn715      Zn  0.28582102  0.84843469  0.20553765     1.49400
Zn716      Zn  0.31918479  0.87392061  0.25888147     1.49100
Zn717      Zn  0.27271925  0.83476264  0.27606657     1.49500
O718        O  0.28890341  0.85885304  0.24752952    -1.83700
O719        O  0.26924098  0.88355586  0.20832615    -0.74400
O720        O  0.31377818  0.85165515  0.19003098    -0.74200
O721        O  0.33135982  0.90617438  0.26023889    -0.73700
O722        O  0.27587128  0.86375650  0.17637987    -0.74400
O723        O  0.30179689  0.90863266  0.26172169    -0.74000
O724        O  0.33635483  0.86740970  0.22908210    -0.74600
O725        O  0.29162558  0.83555338  0.31206130    -0.74000
O726        O  0.26382484  0.81686473  0.20469226    -0.74700
O727        O  0.32300788  0.86466251  0.30062040    -0.74100
O728        O  0.25807201  0.80607817  0.25327597    -0.74600
O729        O  0.24823784  0.83711585  0.29411489    -0.74500
O730        O  0.25269889  0.86822928  0.27695081    -0.74300
C731        C  0.26951641  0.87711019  0.18136600     0.77500
C732        C  0.33225315  0.85887877  0.20255137     0.78000
C733        C  0.32227990  0.91741134  0.26255553     0.77000
C734        C  0.31124169  0.84932599  0.31891628     0.77300
C735        C  0.25481027  0.80194079  0.22465961     0.78500
C736        C  0.24217565  0.85096431  0.29253812     0.77500
Zn737      Zn  0.39458162  0.90731686  0.64410472     1.49700
Zn738      Zn  0.40626759  0.94712493  0.59888803     1.49400
Zn739      Zn  0.40729949  0.90530409  0.57455623     1.49100
Zn740      Zn  0.36287845  0.90322071  0.58937628     1.49500
O741        O  0.39291093  0.91574189  0.60182359    -1.83700
O742        O  0.40739561  0.93334159  0.67263251    -0.74400
O743        O  0.43135773  0.95968517  0.56953913    -0.74200
O744        O  0.41991110  0.88961686  0.59830730    -0.73700
O745        O  0.41773645  0.96052750  0.63980046    -0.74400
O746        O  0.41397112  0.89467129  0.64654062    -0.74000
O747        O  0.43271772  0.93091970  0.55451104    -0.74600
O748        O  0.35752319  0.88818609  0.54882738    -0.74000
O749        O  0.38478307  0.95651722  0.58780029    -0.74700
O750        O  0.38715118  0.88673789  0.54001596    -0.74100
O751        O  0.35378308  0.92543213  0.58596872    -0.74600
O752        O  0.34357130  0.88124248  0.61984014    -0.74500
O753        O  0.36499174  0.88387597  0.65863233    -0.74300
C754        C  0.41656867  0.95354927  0.66696855     0.77500
C755        C  0.44030899  0.95128003  0.55428025     0.78000
C756        C  0.42233341  0.88795942  0.62700307     0.77000
C757        C  0.36814239  0.88228589  0.53226556     0.77300
C758        C  0.36425874  0.94598689  0.58508052     0.78500
C759        C  0.34639941  0.87512073  0.64593896     0.77500
Zn760      Zn  0.47138794  0.11171859  0.92185750     1.49700
Zn761      Zn  0.46674550  0.06678648  0.90833305     1.49400
Zn762      Zn  0.49725949  0.10743067  0.86612823     1.49100
Zn763      Zn  0.51156980  0.10537189  0.93563580     1.49500
O764        O  0.48698026  0.09786699  0.90797935    -1.83700
O765        O  0.43912396  0.09107770  0.92419589    -0.74400
O766        O  0.46390064  0.05453069  0.86644845    -0.74200
O767        O  0.49242402  0.13173379  0.85284045    -0.73700
O768        O  0.43648673  0.05915801  0.91964648    -0.74400
O769        O  0.47639697  0.13560982  0.89352635    -0.74000
O770        O  0.48305708  0.08254428  0.83583665    -0.74600
O771        O  0.54031911  0.12128190  0.91241630    -0.74000
O772        O  0.47710796  0.05151143  0.93594233    -0.74700
O773        O  0.52930648  0.11933354  0.86431555    -0.74100
O774        O  0.50902128  0.07779174  0.95232854    -0.74600
O775        O  0.51104332  0.12246318  0.97287903    -0.74500
O776        O  0.48170137  0.12444738  0.96338277    -0.74300
C777        C  0.42771175  0.07054009  0.92361207     0.77500
C778        C  0.47058133  0.06227843  0.83984685     0.78000
C779        C  0.48445563  0.14157661  0.86694559     0.77000
C780        C  0.54442507  0.12447807  0.88377261     0.77300
C781        C  0.49450348  0.05781523  0.95106053     0.78500
C782        C  0.49742913  0.12799746  0.98080333     0.77500
Zn783      Zn  0.26790221  0.05443556  0.61014071     1.49700
Zn784      Zn  0.25372651  0.03766634  0.54202038     1.49400
Zn785      Zn  0.22168352  0.04506422  0.58480691     1.49100
Zn786      Zn  0.26586223  0.08477855  0.56031808     1.49500
O787        O  0.25194827  0.05521168  0.57443123    -1.83700
O788        O  0.28362784  0.03835967  0.60153753    -0.74400
O789        O  0.22388126  0.01539477  0.52701520    -0.74200
O790        O  0.21549162  0.03493262  0.62948561    -0.73700
O791        O  0.26901451  0.02242502  0.55727428    -0.74400
O792        O  0.24718246  0.03930947  0.64406067    -0.74000
O793        O  0.20189405  0.01965236  0.55799438    -0.74600
O794        O  0.24421491  0.09372891  0.55251356    -0.74000
O795        O  0.27285237  0.05612845  0.50726530    -0.74700
O796        O  0.21457006  0.06875121  0.57650228    -0.74100
O797        O  0.28463822  0.08954493  0.52349325    -0.74600
O798        O  0.28426922  0.10494347  0.59313432    -0.74500
O799        O  0.28835483  0.08423824  0.62700844    -0.74300
C800        C  0.28141266  0.02542174  0.58004422     0.77500
C801        C  0.20486829  0.00976799  0.53607759     0.78000
C802        C  0.22755815  0.03332419  0.64965390     0.77000
C803        C  0.22515301  0.08676269  0.56240835     0.77300
C804        C  0.28534235  0.07649523  0.50450897     0.78500
C805        C  0.29203654  0.10269897  0.61812984     0.77500
Zn806      Zn  0.41770135  0.12157536  0.23302233     1.49700
Zn807      Zn  0.43196868  0.12102126  0.30262951     1.49400
Zn808      Zn  0.46224855  0.16149387  0.25815979     1.49100
Zn809      Zn  0.41669085  0.15304436  0.28209493     1.49500
O810        O  0.43241714  0.13928756  0.26887436    -1.83700
O811        O  0.40564922  0.09009687  0.24243131    -0.74400
O812        O  0.46234220  0.13188443  0.31847338    -0.74200
O813        O  0.46948555  0.15804819  0.21388756    -0.73700
O814        O  0.41917897  0.09025741  0.28835764    -0.74400
O815        O  0.43877758  0.12940418  0.19873217    -0.74000
O816        O  0.48292383  0.15826531  0.28587620    -0.74600
O817        O  0.43602674  0.18478268  0.28517131    -0.74000
O818        O  0.41197802  0.11885334  0.33702148    -0.74700
O819        O  0.46739002  0.19188762  0.26509142    -0.74100
O820        O  0.40094640  0.14108327  0.32158904    -0.74600
O821        O  0.39451175  0.14898483  0.25159067    -0.74500
O822        O  0.39366514  0.12615857  0.21703390    -0.74300
C823        C  0.40821135  0.08014323  0.26477013     0.77500
C824        C  0.48090920  0.14634770  0.30881698     0.78000
C825        C  0.45823633  0.14404704  0.19347029     0.77000
C826        C  0.45521052  0.19813750  0.27669112     0.77300
C827        C  0.40026733  0.12731405  0.34063580     0.78500
C828        C  0.38681757  0.13819593  0.22713902     0.77500
C829        C  0.36028029  0.09339626  0.40304524    -0.27200
C830        C  0.35182114  0.10652588  0.41121852     0.02400
C831        C  0.36023304  0.12693425  0.39720916     0.30500
C832        C  0.37652122  0.13376274  0.37518711    -0.19000
C833        C  0.38476823  0.12051403  0.36651349    -0.28400
C834        C  0.37659551  0.10020755  0.38095274     0.44500
C835        C  0.33434663  0.09893538  0.43444139     0.05700
O836        O  0.35230601  0.14017668  0.40437443    -0.56900
H837        H  0.38244565  0.14939409  0.36444347     0.18600
O838        O  0.38354355  0.08637072  0.37253024    -0.63600
H839        H  0.35417662  0.07774232  0.41379020     0.17100
C840        C  0.31505794  0.07883261  0.43154029     0.29300
C841        C  0.29897295  0.07200122  0.45400262    -0.24500
C842        C  0.30170775  0.08496505  0.47963965    -0.23800
C843        C  0.32094840  0.10523882  0.48222891     0.40800
C844        C  0.33703852  0.11195576  0.45988911    -0.26300
O845        O  0.31150102  0.06607069  0.40633818    -0.58200
H846        H  0.28433830  0.05642629  0.45137726     0.16400
O847        O  0.32478695  0.11815136  0.50732130    -0.59600
H848        H  0.35190103  0.12730770  0.46275444     0.14900
H849        H  0.39494143  0.08882988  0.38762101     0.46700
H850        H  0.31318535  0.05393217  0.41370896     0.42100
H851        H  0.32058763  0.12877515  0.50087320     0.45500
H852        H  0.33955112  0.13546863  0.39083740     0.37000
C853        C  0.46297623  0.13330888  0.10937386    -0.27200
C854        C  0.48524823  0.14610479  0.10424067     0.02400
C855        C  0.49890385  0.15811276  0.12869606     0.30500
C856        C  0.49003781  0.15748337  0.15766567    -0.19000
C857        C  0.46760056  0.14464196  0.16279607    -0.28400
C858        C  0.45413870  0.13235654  0.13812576     0.44500
C859        C  0.49327727  0.14657748  0.07279692     0.05700
O860        O  0.52071791  0.17117140  0.12416117    -0.56900
H861        H  0.50076013  0.16704605  0.17611115     0.18600
O862        O  0.43213882  0.11984880  0.14140139    -0.63600
H863        H  0.45226058  0.12389773  0.09080004     0.17100
C864        C  0.50666057  0.13804126  0.06626061     0.29300
C865        C  0.50948120  0.13372319  0.03579476    -0.24500
C866        C  0.49875188  0.13745800  0.01158286    -0.23800
C867        C  0.48688923  0.14775228  0.01813362     0.40800
C868        C  0.48434194  0.15226527  0.04843956    -0.26300
O869        O  0.51580438  0.13245101  0.08951140    -0.58200
H870        H  0.51879694  0.12598577  0.03140868     0.16400
O871        O  0.47717179  0.15294230  0.99517045    -0.59600
H872        H  0.47422510  0.15909925  0.05309220     0.14900
H873        H  0.42924828  0.10495398  0.14497511     0.46700
H874        H  0.50492061  0.11729186  0.09473998     0.42100
H875        H  0.46160905  0.14174585  0.99611768     0.45500
H876        H  0.52744646  0.16370893  0.13448239     0.37000
C877        C  0.31824991  0.00431123  0.60574247    -0.27200
C878        C  0.31777373  0.99253423  0.57988006     0.02400
C879        C  0.30523618  0.99150404  0.55437060     0.30500
C880        C  0.29335769  0.00202750  0.55499112    -0.19000
C881        C  0.29378129  0.01392808  0.58081026    -0.28400
C882        C  0.30646904  0.01499656  0.60637206     0.44500
C883        C  0.32994913  0.98091864  0.57999171     0.05700
O884        O  0.30461045  0.98036511  0.52856507    -0.56900
H885        H  0.28395323  0.00100820  0.53491385     0.18600
O886        O  0.30712425  0.02596551  0.63238116    -0.63600
H887        H  0.32762154  0.00502182  0.62570739     0.17100
C888        C  0.35238154  0.99188537  0.58548013     0.29300
C889        C  0.36338432  0.98042740  0.58639631    -0.24500
C890        C  0.35234831  0.95788932  0.58192322    -0.23800
C891        C  0.32984845  0.94701921  0.57596957     0.40800
C892        C  0.31893876  0.95855256  0.57491956    -0.26300
O893        O  0.36370800  0.01381736  0.59004277    -0.58200
H894        H  0.38059609  0.98924225  0.59108021     0.16400
O895        O  0.31829761  0.92514834  0.57089590    -0.59600
H896        H  0.30166275  0.94988518  0.57067891     0.14900
H897        H  0.32035054  0.04040792  0.63039157     0.46700
H898        H  0.36773493  0.02022608  0.56925054     0.42100
H899        H  0.31149929  0.91863795  0.59084564     0.45500
H900        H  0.31683862  0.99097699  0.51580510     0.37000
C901        C  0.46576038  0.03845929  0.76016991    -0.27200
C902        C  0.44982592  0.01671174  0.76501359     0.02400
C903        C  0.44066277  0.01027116  0.79436512     0.30500
C904        C  0.44763644  0.02526171  0.81823076    -0.19000
C905        C  0.46351252  0.04707688  0.81349618    -0.28400
C906        C  0.47236505  0.05364671  0.78390609     0.44500
C907        C  0.44240104  0.00093275  0.73932957     0.05700
O908        O  0.42462861  0.98937348  0.79997077    -0.56900
H909        H  0.44032294  0.01970516  0.84055010     0.18600
O910        O  0.48779953  0.07471270  0.77796455    -0.63600
H911        H  0.47322000  0.04372746  0.73788881     0.17100
C912        C  0.43613919  0.00556787  0.71101737     0.29300
C913        C  0.42799176  0.99002386  0.68779115    -0.24500
C914        C  0.42578056  0.96958757  0.69213482    -0.23800
C915        C  0.43243716  0.96507165  0.72024192     0.40800
C916        C  0.44076401  0.98071224  0.74344491    -0.26300
O917        O  0.43670340  0.02476101  0.70643979    -0.58200
H918        H  0.42287520  0.99386888  0.66647802     0.16400
O919        O  0.43091289  0.94549172  0.72534237    -0.59600
H920        H  0.44589389  0.97697991  0.76483005     0.14900
H921        H  0.47968210  0.08155572  0.77021851     0.46700
H922        H  0.44879192  0.03308620  0.69199591     0.42100
H923        H  0.44491365  0.94740382  0.71842522     0.45500
H924        H  0.41101233  0.98871917  0.79370352     0.37000
C925        C  0.32933667  0.85664876  0.46490413    -0.27200
C926        C  0.34269827  0.85506161  0.44299488     0.02400
C927        C  0.36369965  0.86015873  0.45188853     0.30500
C928        C  0.37145487  0.86808629  0.48138185    -0.19000
C929        C  0.35852167  0.87094082  0.50275380    -0.28400
C930        C  0.33696135  0.86435656  0.49447462     0.44500
C931        C  0.33551544  0.85083667  0.41031422     0.05700
O932        O  0.37709510  0.85818341  0.43157595    -0.56900
H933        H  0.38795229  0.87272147  0.48710015     0.18600
O934        O  0.32321094  0.86568884  0.51486662    -0.63600
H935        H  0.31321894  0.85302311  0.45867934     0.17100
C936        C  0.31459512  0.83427999  0.40175270     0.29300
C937        C  0.30720238  0.83317265  0.37151609    -0.24500
C938        C  0.32040527  0.84840681  0.34931886    -0.23800
C939        C  0.34193007  0.86389127  0.35752478     0.40800
C940        C  0.34910508  0.86516147  0.38769245    -0.26300
O941        O  0.30134688  0.81906113  0.42275270    -0.58200
H942        H  0.29081834  0.82077736  0.36579386     0.16400
O943        O  0.35592658  0.87867224  0.33670076    -0.59600
H944        H  0.36516524  0.87814905  0.39366297     0.14900
H945        H  0.32323360  0.87910299  0.50931211     0.46700
H946        H  0.28927563  0.82176336  0.42619899     0.42100
H947        H  0.36350967  0.87178114  0.32739945     0.45500
H948        H  0.37338518  0.84290690  0.43322506     0.37000
C949        C  0.36989357  0.97441437  0.27401303    -0.27200
C950        C  0.36073506  0.98679790  0.26506114     0.02400
C951        C  0.33883635  0.97635542  0.25639402     0.30500
C952        C  0.32645464  0.95380640  0.25640409    -0.19000
C953        C  0.33561353  0.94125415  0.26486255    -0.28400
C954        C  0.35753411  0.95180661  0.27396411     0.44500
C955        C  0.37408287  0.01062291  0.26474694     0.05700
O956        O  0.32942654  0.98806965  0.24767474    -0.56900
H957        H  0.30970897  0.94614607  0.24914539     0.18600
O958        O  0.36712016  0.94025796  0.28263079    -0.63600
H959        H  0.38676605  0.98231905  0.28069934     0.17100
C960        C  0.38335167  0.02219824  0.29187540     0.29300
C961        C  0.39492271  0.04480690  0.29138529    -0.24500
C962        C  0.39753479  0.05623810  0.26395695    -0.23800
C963        C  0.38880838  0.04448424  0.23656765     0.40800
C964        C  0.37709014  0.02188233  0.23719718    -0.26300
O965        O  0.38010273  0.01155430  0.31925940    -0.58200
H966        H  0.40130047  0.05337382  0.31277341     0.16400
O967        O  0.39131455  0.05483736  0.20910670    -0.59600
H968        H  0.37020001  0.01307509  0.21610238     0.14900
H969        H  0.36448877  0.93785659  0.30497060     0.46700
H970        H  0.39350623  0.01113209  0.32299870     0.42100
H971        H  0.40513917  0.05715281  0.20071445     0.45500
H972        H  0.32424660  0.99114107  0.26695417     0.37000
C973        C  0.22564935  0.02120287  0.73451584    -0.27200
C974        C  0.20415730  0.00473442  0.73824997     0.02400
C975        C  0.18977576  0.99852248  0.71326044     0.30500
C976        C  0.19719296  0.00859524  0.68463593    -0.19000
C977        C  0.21907294  0.02443089  0.68049969    -0.28400
C978        C  0.23321820  0.03090400  0.70598389     0.44500
C979        C  0.19803741  0.99289767  0.76762201     0.05700
O980        O  0.16859448  0.98250503  0.71653434    -0.56900
H981        H  0.18606633  0.00339439  0.66541883     0.18600
O982        O  0.25450053  0.04687535  0.70334269    -0.63600
H983        H  0.23684150  0.02603206  0.75364446     0.17100
C984        C  0.19980551  0.97440009  0.77111999     0.29300
C985        C  0.19857159  0.96573890  0.80028152    -0.24500
C986        C  0.19549672  0.97526307  0.82632656    -0.23800
C987        C  0.19273288  0.99322814  0.82266786     0.40800
C988        C  0.19414694  0.00201198  0.79339944    -0.26300
O989        O  0.20376854  0.96530025  0.74627831    -0.58200
H990        H  0.20070686  0.95191232  0.80266590     0.16400
O991        O  0.19000543  0.00311189  0.84764755    -0.59600
H992        H  0.19320790  0.01653123  0.79097307     0.14900
H993        H  0.26270018  0.03920309  0.70201516     0.46700
H994        H  0.21974764  0.97274860  0.74473966     0.42100
H995        H  0.20482850  0.01423940  0.85405341     0.45500
H996        H  0.16828276  0.96890654  0.71144305     0.37000
C997        C  0.32304177  0.01614619  0.89783613    -0.27200
C998        C  0.33406186  0.02698429  0.92461953     0.02400
C999        C  0.32209968  0.02615403  0.95048915     0.30500
C1000       C  0.29950065  0.01388657  0.94975523    -0.19000
C1001       C  0.28833675  0.00207598  0.92344723    -0.28400
C1002       C  0.30040365  0.00377088  0.89705747     0.44500
C1003       C  0.35799318  0.03810256  0.92578711     0.05700
O1004       O  0.33235407  0.03665245  0.97698302    -0.56900
H1005       H  0.29076476  0.01308421  0.97034229     0.18600
O1006       O  0.29033047  0.99349157  0.87036548    -0.63600
H1007       H  0.33208164  0.01698819  0.87756017     0.17100
C1008       C  0.36861992  0.02655136  0.92021063     0.29300
C1009       C  0.39120269  0.03721230  0.92042467    -0.24500
C1010       C  0.40373887  0.05954848  0.92621771    -0.23800
C1011       C  0.39298391  0.07099860  0.93270082     0.40800
C1012       C  0.37030885  0.06022317  0.93258397    -0.26300
O1013       O  0.35703320  0.00477254  0.91439325    -0.58200
H1014       H  0.39888474  0.02791893  0.91548737     0.16400
O1015       O  0.40437812  0.09265584  0.93935822    -0.59600
H1016       H  0.36231520  0.06926501  0.93724329     0.14900
H1017       H  0.29095882  0.98001149  0.87016753     0.46700
H1018       H  0.35399201  0.99774917  0.93481534     0.42100
H1019       H  0.40509020  0.10005390  0.91978832     0.45500
H1020       H  0.33477729  0.02617230  0.98860559     0.37000
C1021       C  0.24908365  0.88377811  0.10380056    -0.27200
C1022       C  0.24888821  0.90305013  0.10814845     0.02400
C1023       C  0.25553319  0.91368447  0.13655384     0.30500
C1024       C  0.26223625  0.90502389  0.15998788    -0.19000
C1025       C  0.26255820  0.88578194  0.15567511    -0.28400
C1026       C  0.25590426  0.87516662  0.12718308     0.44500
C1027       C  0.24089047  0.91129563  0.08318982     0.05700
O1028       O  0.25432030  0.93182838  0.14219498    -0.56900
H1029       H  0.26713229  0.91344313  0.18171871     0.18600
O1030       O  0.25503782  0.85588662  0.12235783    -0.63600
H1031       H  0.24383866  0.87530520  0.08213735     0.17100
C1032       C  0.25337258  0.93257451  0.07193416     0.29300
C1033       C  0.24557253  0.93957590  0.04771472    -0.24500
C1034       C  0.22556689  0.92546377  0.03376033    -0.23800
C1035       C  0.21301295  0.90423233  0.04532161     0.40800
C1036       C  0.22070828  0.89736027  0.06976005    -0.26300
O1037       O  0.27353673  0.94643565  0.08366542    -0.58200
H1038       H  0.25563231  0.95587437  0.03908711     0.16400
O1039       O  0.19329727  0.88990538  0.03272833    -0.59600
H1040       H  0.21087060  0.88097610  0.07821399     0.14900
H1041       H  0.26854184  0.85969866  0.11126148     0.46700
H1042       H  0.28346170  0.94311333  0.07242520     0.42100
H1043       H  0.18274342  0.89249328  0.04364940     0.45500
H1044       H  0.26947089  0.94372878  0.14506713     0.37000
C1045       C  0.50206157  0.87174494  0.65601112    -0.27200
C1046       C  0.48217247  0.86188888  0.67135680     0.02400
C1047       C  0.47934741  0.84872031  0.69700883     0.30500
C1048       C  0.49649680  0.84618765  0.70741419    -0.19000
C1049       C  0.51676577  0.85685395  0.69285622    -0.28400
C1050       C  0.51925267  0.86945427  0.66655106     0.44500
C1051       C  0.46499630  0.86627946  0.66074866     0.05700
O1052       O  0.45970462  0.83780415  0.71148111    -0.56900
H1053       H  0.49402301  0.83625453  0.72745420     0.18600
O1054       O  0.53835104  0.87947746  0.65067871    -0.63600
H1055       H  0.50450827  0.88181597  0.63613363     0.17100
C1056       C  0.45614977  0.87511706  0.68068894     0.29300
C1057       C  0.44159383  0.88109133  0.66957110    -0.24500
C1058       C  0.43586135  0.87898582  0.63832566    -0.23800
C1059       C  0.44434556  0.86963374  0.61849499     0.40800
C1060       C  0.45878352  0.86346394  0.62974173    -0.26300
O1061       O  0.46242748  0.87903077  0.71082929    -0.58200
H1062       H  0.43549733  0.88827888  0.68542933     0.16400
O1063       O  0.43919250  0.86697941  0.58791727    -0.59600
H1064       H  0.46547383  0.85677116  0.61401827     0.14900
H1065       H  0.54594210  0.89472848  0.65768596     0.46700
H1066       H  0.47557570  0.89361780  0.71106666     0.42100
H1067       H  0.42627131  0.85230250  0.58620156     0.45500
H1068       H  0.46222060  0.84397006  0.73241579     0.37000
C1069       C  0.69092702  0.92039227  0.57060719    -0.27200
C1070       C  0.67449070  0.89858736  0.56913880     0.02400
C1071       C  0.67472162  0.88566178  0.54519780     0.30500
C1072       C  0.69135862  0.89453785  0.52344206    -0.19000
C1073       C  0.70804292  0.91635833  0.52497131    -0.28400
C1074       C  0.70753411  0.92932772  0.54881156     0.44500
C1075       C  0.65741418  0.88963850  0.59302356     0.05700
O1076       O  0.65818432  0.86465158  0.54206737    -0.56900
H1077       H  0.69093976  0.88427910  0.50500519     0.18600
O1078       O  0.72336346  0.95063971  0.55147959    -0.63600
H1079       H  0.69097242  0.93052895  0.58895915     0.17100
C1080       C  0.65482018  0.87287754  0.61259795     0.29300
C1081       C  0.64014121  0.86623001  0.63698389    -0.24500
C1082       C  0.62763917  0.87593320  0.64232118    -0.23800
C1083       C  0.62972895  0.89219765  0.62183130     0.40800
C1084       C  0.64453706  0.89891539  0.59758885    -0.26300
O1085       O  0.66763984  0.86393820  0.60934692    -0.58200
H1086       H  0.63901092  0.85376424  0.65223385     0.16400
O1087       O  0.61765496  0.90191229  0.62541193    -0.59600
H1088       H  0.64625681  0.91173536  0.58255262     0.14900
H1089       H  0.71733023  0.95885779  0.54144643     0.46700
H1090       H  0.65778048  0.84888400  0.60239455     0.42100
H1091       H  0.62704508  0.91533752  0.63709026     0.45500
H1092       H  0.66483118  0.85562184  0.54546010     0.37000
C1093       C  0.59239582  0.14118295  0.83055957    -0.27200
C1094       C  0.60857503  0.14413145  0.85134376     0.02400
C1095       C  0.60444505  0.14318684  0.88295943     0.30500
C1096       C  0.58385141  0.13793492  0.89335528    -0.19000
C1097       C  0.56702347  0.13339175  0.87251724    -0.28400
C1098       C  0.57184429  0.13595744  0.84078253     0.44500
C1099       C  0.62856559  0.14547544  0.83956095     0.05700
O1100       O  0.62042654  0.14721455  0.90380372    -0.56900
H1101       H  0.58088363  0.13663218  0.91778964     0.18600
O1102       O  0.55634377  0.13229350  0.81929846    -0.63600
H1103       H  0.59539468  0.14191620  0.80615185     0.17100
C1104       C  0.63198464  0.12802586  0.84387526     0.29300
C1105       C  0.64976144  0.12830882  0.83042848    -0.24500
C1106       C  0.66436924  0.14574104  0.81199465    -0.23800
C1107       C  0.66108839  0.16343965  0.80808553     0.40800
C1108       C  0.64319609  0.16310115  0.82160920    -0.26300
O1109       O  0.61755230  0.11019678  0.86033970    -0.58200
H1110       H  0.65168809  0.11442706  0.83375699     0.16400
O1111       O  0.67501970  0.18101172  0.79079609    -0.59600
H1112       H  0.64060771  0.17653836  0.81784521     0.14900
H1113       H  0.55773156  0.14658628  0.81572379     0.46700
H1114       H  0.60617703  0.10079292  0.84543003     0.42100
H1115       H  0.68631118  0.19103330  0.80533971     0.45500
H1116       H  0.61701249  0.13282262  0.91154977     0.37000
C1117       C  0.63717204  0.97398854  0.78502767    -0.27200
C1118       C  0.63865534  0.98569702  0.75840737     0.02400
C1119       C  0.62859098  0.97441096  0.73135896     0.30500
C1120       C  0.61819438  0.95189728  0.73071221    -0.19000
C1121       C  0.61739434  0.94002889  0.75690804    -0.28400
C1122       C  0.62665206  0.95133096  0.78447834     0.44500
C1123       C  0.65176863  0.00963683  0.75823839     0.05700
O1124       O  0.62914771  0.98530220  0.70517033    -0.56900
H1125       H  0.61104634  0.94377429  0.70928747     0.18600
O1126       O  0.62554826  0.94050494  0.81099126    -0.63600
H1127       H  0.64478045  0.98245288  0.80607250     0.17100
C1128       C  0.64766948  0.02221311  0.77867393     0.29300
C1129       C  0.66013996  0.04483392  0.77729082    -0.24500
C1130       C  0.67689761  0.05528178  0.75575508    -0.23800
C1131       C  0.68111795  0.04254511  0.73561974     0.40800
C1132       C  0.66859216  0.02000094  0.73696324    -0.26300
O1133       O  0.63094359  0.01256595  0.79915074    -0.58200
H1134       H  0.65652818  0.05421002  0.79298835     0.16400
O1135       O  0.69759090  0.05187620  0.71472681    -0.59600
H1136       H  0.67215653  0.01051118  0.72140290     0.14900
H1137       H  0.63952929  0.94088027  0.81231500     0.46700
H1138       H  0.63783371  0.01341965  0.81923049     0.42100
H1139       H  0.71039569  0.05313796  0.72544959     0.45500
H1140       H  0.61683733  0.98781218  0.70700548     0.37000
C1141       C  0.81708497  0.98373429  0.28160738    -0.27200
C1142       C  0.80938717  0.99637872  0.26827883     0.02400
C1143       C  0.79449649  0.99979397  0.28434877     0.30500
C1144       C  0.78697869  0.99012541  0.31293267    -0.19000
C1145       C  0.79439914  0.97725856  0.32637828    -0.28400
C1146       C  0.80993958  0.97445153  0.31075032     0.44500
C1147       C  0.81519667  0.00450245  0.23655544     0.05700
O1148       O  0.78628695  0.01159287  0.27145075    -0.56900
H1149       H  0.77513461  0.99262330  0.32457820     0.18600
O1150       O  0.81723379  0.96166370  0.32284963    -0.63600
H1151       H  0.82837897  0.98081446  0.26920145     0.17100
C1152       C  0.82838549  0.02671861  0.23050318     0.29300
C1153       C  0.83032808  0.03448395  0.20046592    -0.24500
C1154       C  0.81878083  0.02034682  0.17623769    -0.23800
C1155       C  0.80659530  0.99790002  0.18225632     0.40800
C1156       C  0.80491284  0.99018897  0.21221204    -0.26300
O1157       O  0.83897931  0.04096258  0.25395710    -0.58200
H1158       H  0.83990486  0.05175160  0.19650839     0.16400
O1159       O  0.79543000  0.98338732  0.15933468    -0.59600
H1160       H  0.79462571  0.97305068  0.21669032     0.14900
H1161       H  0.83097124  0.97178791  0.33340591     0.46700
H1162       H  0.83068143  0.04833702  0.25761384     0.42100
H1163       H  0.80573129  0.97942124  0.15085606     0.45500
H1164       H  0.79380592  0.02576780  0.28203709     0.37000
C1165       C  0.78237873  0.11979556  0.88235234    -0.27200
C1166       C  0.76922919  0.11128172  0.90831385     0.02400
C1167       C  0.74918012  0.11042248  0.90891644     0.30500
C1168       C  0.74231537  0.11736772  0.88351908    -0.19000
C1169       C  0.75514410  0.12522539  0.85709895    -0.28400
C1170       C  0.77547475  0.12657596  0.85684392     0.44500
C1171       C  0.77631776  0.10282706  0.93422611     0.05700
O1172       O  0.73589324  0.10229733  0.93390670    -0.56900
H1173       H  0.72668816  0.11621935  0.88433687     0.18600
O1174       O  0.78852079  0.13390035  0.83151650    -0.63600
H1175       H  0.79799987  0.12093014  0.88166391     0.17100
C1176       C  0.78265728  0.08745005  0.92931073     0.29300
C1177       C  0.78888738  0.07935783  0.95411124    -0.24500
C1178       C  0.78884483  0.08625633  0.98416911    -0.23800
C1179       C  0.78272684  0.10187083  0.98897960     0.40800
C1180       C  0.77657193  0.10999357  0.96415734    -0.26300
O1181       O  0.78170484  0.07937793  0.90053490    -0.58200
H1182       H  0.79328750  0.06724433  0.94981041     0.16400
O1183       O  0.78270567  0.10937520  0.01781425    -0.59600
H1184       H  0.77205772  0.12204091  0.96831633     0.14900
H1185       H  0.78424559  0.12083207  0.81895977     0.46700
H1186       H  0.79695115  0.08588685  0.89391366     0.42100
H1187       H  0.79725739  0.12236831  0.02041047     0.45500
H1188       H  0.72679713  0.08654730  0.93007184     0.37000
C1189       C  0.68026386  0.15045954  0.53590268    -0.27200
C1190       C  0.66846205  0.13920495  0.56193903     0.02400
C1191       C  0.64726708  0.12163881  0.55850218     0.30500
C1192       C  0.63859479  0.11471690  0.52920508    -0.19000
C1193       C  0.65073612  0.12533863  0.50313735    -0.28400
C1194       C  0.67140674  0.14377546  0.50655822     0.44500
C1195       C  0.67939077  0.14334003  0.59195478     0.05700
O1196       O  0.63542503  0.11034283  0.58358779    -0.56900
H1197       H  0.62265665  0.10051219  0.52678655     0.18600
O1198       O  0.68381833  0.15406698  0.48139821    -0.63600
H1199       H  0.69672319  0.16379133  0.53832264     0.17100
C1200       C  0.69506115  0.13741061  0.59665209     0.29300
C1201       C  0.70329783  0.13835152  0.62596133    -0.24500
C1202       C  0.69619584  0.14523810  0.65107014    -0.23800
C1203       C  0.68123002  0.15216096  0.64615227     0.40800
C1204       C  0.67268440  0.15088288  0.61671930    -0.26300
O1205       O  0.70178045  0.12982204  0.57289038    -0.58200
H1206       H  0.71500752  0.13323018  0.62915765     0.16400
O1207       O  0.67379525  0.15879703  0.67016556    -0.59600
H1208       H  0.66043810  0.15526232  0.61332852     0.14900
H1209       H  0.68087379  0.16584481  0.47667076     0.46700
H1210       H  0.69159226  0.11398619  0.57258636     0.42100
H1211       H  0.68278569  0.17479184  0.67006372     0.45500
H1212       H  0.63898943  0.09883929  0.58697691     0.37000
C1213       C  0.51824689  0.13936243  0.36349232    -0.27200
C1214       C  0.53659038  0.14660836  0.34509654     0.02400
C1215       C  0.53766631  0.15643414  0.31678693     0.30500
C1216       C  0.51985959  0.15751675  0.30612854    -0.19000
C1217       C  0.50068097  0.14862466  0.32330673    -0.28400
C1218       C  0.50035302  0.14037662  0.35285709     0.44500
C1219       C  0.55233023  0.13990326  0.35257862     0.05700
O1220       O  0.55543114  0.16349866  0.29837031    -0.56900
H1221       H  0.52064158  0.16411145  0.28349122     0.18600
O1222       O  0.48231571  0.13231142  0.37092703    -0.63600
H1223       H  0.51729745  0.13169437  0.38532581     0.17100
C1224       C  0.56860471  0.15055773  0.37473197     0.29300
C1225       C  0.58245759  0.14273932  0.38199489    -0.24500
C1226       C  0.57998553  0.12407656  0.36765827    -0.23800
C1227       C  0.56383312  0.11382417  0.34486508     0.40800
C1228       C  0.55022381  0.12175628  0.33764421    -0.26300
O1229       O  0.57115913  0.16862935  0.38917488    -0.58200
H1230       H  0.59477716  0.15098680  0.39938094     0.16400
O1231       O  0.56086475  0.09579356  0.32975742    -0.59600
H1232       H  0.53767378  0.11347388  0.32053018     0.14900
H1233       H  0.48395528  0.14494585  0.38242165     0.46700
H1234       H  0.56233319  0.16320307  0.40802460     0.42100
H1235       H  0.56989097  0.10134834  0.31108370     0.45500
H1236       H  0.56531550  0.17874674  0.30441492     0.37000
C1237       C  0.48970366  0.00074505  0.52065151    -0.27200
C1238       C  0.49827805  0.99105804  0.50207093     0.02400
C1239       C  0.48770813  0.96838980  0.50054813     0.30500
C1240       C  0.46886954  0.95573683  0.51746429    -0.19000
C1241       C  0.46013305  0.96531997  0.53617005    -0.28400
C1242       C  0.47089382  0.98814035  0.53771805     0.44500
C1243       C  0.51821280  0.00474882  0.48427740     0.05700
O1244       O  0.49558572  0.95842780  0.48239314    -0.56900
H1245       H  0.46107202  0.93831208  0.51579764     0.18600
O1246       O  0.46328811  0.99838484  0.55580658    -0.63600
H1247       H  0.49780345  0.01820032  0.52223522     0.17100
C1248       C  0.51900598  0.01964900  0.46257279     0.29300
C1249       C  0.53798713  0.03254676  0.44606685    -0.24500
C1250       C  0.55663581  0.03125284  0.45131624    -0.23800
C1251       C  0.55579540  0.01625127  0.47305028     0.40800
C1252       C  0.53661382  0.00301187  0.48911056    -0.26300
O1253       O  0.50109046  0.02127467  0.45674792    -0.58200
H1254       H  0.53821971  0.04397027  0.42956115     0.16400
O1255       O  0.57338739  0.01395623  0.47815140    -0.59600
H1256       H  0.53618578  0.99155032  0.50572215     0.14900
H1257       H  0.47095903  0.00080062  0.57566353     0.46700
H1258       H  0.50371658  0.03448710  0.46765138     0.42100
H1259       H  0.58026486  0.02232333  0.49704837     0.45500
H1260       H  0.48932596  0.95762275  0.46179581     0.37000
C1261       C  0.69932342  0.04607945  0.39789710    -0.27200
C1262       C  0.69070137  0.02747668  0.41615338     0.02400
C1263       C  0.67215555  0.02156618  0.43378654     0.30500
C1264       C  0.66226348  0.03403230  0.43260194    -0.19000
C1265       C  0.67052736  0.05242930  0.41373795    -0.28400
C1266       C  0.68950122  0.05860140  0.39669379     0.44500
C1267       C  0.70152630  0.01467265  0.41742035     0.05700
O1268       O  0.66336793  0.00340656  0.45185359    -0.56900
H1269       H  0.64771113  0.02888514  0.44581721     0.18600
O1270       O  0.69857600  0.07676306  0.37862925    -0.63600
H1271       H  0.71385441  0.05101746  0.38471798     0.17100
C1272       C  0.70408208  0.00505029  0.39098055     0.29300
C1273       C  0.71414026  0.99272126  0.39307880    -0.24500
C1274       C  0.72208923  0.99013764  0.42130854    -0.23800
C1275       C  0.71955768  0.99998268  0.44770386     0.40800
C1276       C  0.70939280  0.01210981  0.44554406    -0.26300
O1277       O  0.69610427  0.00697290  0.36326745    -0.58200
H1278       H  0.71582592  0.98529586  0.37253785     0.16400
O1279       O  0.72676869  0.99775994  0.47587970    -0.59600
H1280       H  0.70763721  0.01958481  0.46599040     0.14900
H1281       H  0.70862766  0.08869401  0.39232999     0.46700
H1282       H  0.70879800  0.01828434  0.35198474     0.42100
H1283       H  0.71456006  0.98440554  0.48476661     0.45500
H1284       H  0.65340239  0.99140219  0.43819449     0.37000
C1285       C  0.52671881  0.87648688  0.93929993    -0.27200
C1286       C  0.52692209  0.85709298  0.93752459     0.02400
C1287       C  0.52440368  0.84527083  0.96460973     0.30500
C1288       C  0.52195369  0.85302479  0.99289207    -0.29800
C1289       C  0.52249538  0.87281083  0.99467179    -0.28400
C1290       C  0.52477048  0.88446796  0.96754249     0.44500
C1291       C  0.53175782  0.85062187  0.90767599     0.05700
O1292       O  0.52493080  0.82646359  0.96377477    -0.56900
H1293       H  0.52055168  0.84403264  0.01359487     0.18600
O1294       O  0.52495827  0.90365746  0.96841042    -0.63600
H1295       H  0.52896569  0.88596582  0.91881964     0.17100
C1296       C  0.51941478  0.84834959  0.88120773     0.29300
C1297       C  0.52625990  0.84546446  0.85243405    -0.24500
C1298       C  0.54570238  0.84545635  0.84959438    -0.23800
C1299       C  0.55740798  0.84659823  0.87624763     0.40800
C1300       C  0.55037431  0.84906291  0.90496767    -0.26300
O1301       O  0.50083746  0.84926299  0.88326529    -0.58200
H1302       H  0.51710999  0.84465464  0.83215383     0.16400
O1303       O  0.57632000  0.84631102  0.87429389    -0.59600
H1304       H  0.56014114  0.85092455  0.92500986     0.14900
H1305       H  0.54043636  0.91508242  0.96731982     0.46700
H1306       H  0.50462002  0.86365274  0.87501832     0.42100
H1307       H  0.57188240  0.83079191  0.87457836     0.45500
H1308       H  0.50978505  0.81491990  0.95978590     0.37000
C1309       C  0.38273288  0.85645436  0.18575924    -0.27200
C1310       C  0.38414105  0.85900073  0.15386505     0.02400
C1311       C  0.36760062  0.85989935  0.13773572     0.30500
C1312       C  0.35022611  0.85889208  0.15371801    -0.19000
C1313       C  0.34944174  0.85759736  0.18586784    -0.28400
C1314       C  0.36561574  0.85580983  0.20179118     0.44500
C1315       C  0.40440226  0.86371650  0.13861885     0.05700
O1316       O  0.36844476  0.86195300  0.10642888    -0.56900
H1317       H  0.33784813  0.86005705  0.14102776     0.18600
O1318       O  0.36510414  0.85385032  0.23308949    -0.63600
H1319       H  0.39547052  0.85590210  0.19841257     0.17100
C1320       C  0.41868913  0.88477767  0.12809197     0.29300
C1321       C  0.43933719  0.89036248  0.11831039    -0.24500
C1322       C  0.44625608  0.87525278  0.11897959    -0.23800
C1323       C  0.43164118  0.85385062  0.12814761     0.40800
C1324       C  0.41085013  0.84823418  0.13812577    -0.26300
O1325       O  0.41304264  0.90037434  0.12888667    -0.58200
H1326       H  0.45031929  0.90688952  0.11121268     0.16400
O1327       O  0.43785861  0.83869133  0.12904027    -0.59600
H1328       H  0.40002340  0.83202262  0.14651283     0.14900
H1329       H  0.35611561  0.83810508  0.23714387     0.46700
H1330       H  0.41722909  0.90681914  0.14962178     0.42100
H1331       H  0.44396195  0.83985502  0.14985752     0.45500
H1332       H  0.37258580  0.87716285  0.10234353     0.37000
C1333       C  0.57868683  0.02466557  0.25863503    -0.27200
C1334       C  0.58551771  0.00950697  0.25766950     0.02400
C1335       C  0.60258973  0.01233248  0.27695888     0.30500
C1336       C  0.61194954  0.02963053  0.29754148    -0.19000
C1337       C  0.60412572  0.04391717  0.29972973    -0.28400
C1338       C  0.58773408  0.04165922  0.27965652     0.44500
C1339       C  0.57468761  0.99086005  0.23651695     0.05700
O1340       O  0.60963450  0.99780365  0.27679070    -0.56900
H1341       H  0.62444557  0.03110965  0.31309838     0.18600
O1342       O  0.58015149  0.05573012  0.28087983    -0.63600
H1343       H  0.56608469  0.02316195  0.24330544     0.17100
C1344       C  0.55194731  0.97767215  0.23565034     0.29300
C1345       C  0.54205872  0.96086702  0.21426431    -0.24500
C1346       C  0.55462103  0.95674500  0.19405842    -0.23800
C1347       C  0.57735060  0.96957861  0.19546645     0.40800
C1348       C  0.58718292  0.98652545  0.21644272    -0.26300
O1349       O  0.53935261  0.98069106  0.25625227    -0.58200
H1350       H  0.52457988  0.95102384  0.21350736     0.16400
O1351       O  0.59010914  0.96622449  0.17560166    -0.59600
H1352       H  0.60463994  0.99666364  0.21648402     0.14900
H1353       H  0.58951359  0.06766998  0.26672603     0.46700
H1354       H  0.53202635  0.98688509  0.24421635     0.42100
H1355       H  0.59148155  0.97495489  0.15719517     0.45500
H1356       H  0.59979401  0.98604513  0.29086197     0.37000
C1357       C  0.69252720  0.97233340  0.08384963    -0.27200
C1358       C  0.68046639  0.98201721  0.09133762     0.02400
C1359       C  0.69117851  0.00399195  0.09938939     0.30500
C1360       C  0.71377738  0.01621464  0.09897344    -0.19000
C1361       C  0.72600403  0.00676638  0.09062090    -0.28400
C1362       C  0.71512200  0.98447703  0.08345489     0.44500
C1363       C  0.65666188  0.96908564  0.09031510     0.05700
O1364       O  0.67965488  0.01346700  0.10843859    -0.56900
H1365       H  0.72172397  0.03315992  0.10510116     0.18600
O1366       O  0.72628540  0.97458743  0.07458032    -0.63600
H1367       H  0.68435873  0.95538097  0.07766298     0.17100
C1368       C  0.64491073  0.97359428  0.06867690     0.29300
C1369       C  0.62230394  0.96158793  0.06866221    -0.24500
C1370       C  0.61104062  0.94490140  0.09007701    -0.23800
C1371       C  0.62304786  0.94014245  0.11133580     0.40800
C1372       C  0.64564494  0.95209472  0.11108069    -0.26300
O1373       O  0.65540065  0.98982034  0.04756845    -0.58200
H1374       H  0.61360420  0.96562233  0.05212005     0.16400
O1375       O  0.61297148  0.92386820  0.13250380    -0.59600
H1376       H  0.65461562  0.94838279  0.12761227     0.14900
H1377       H  0.72768437  0.96757762  0.09337339     0.46700
H1378       H  0.65929094  0.98324127  0.03069272     0.42100
H1379       H  0.61246338  0.93109411  0.15153558     0.45500
H1380       H  0.67980063  0.02212659  0.09060570     0.37000
C1381       C  0.48749888  0.00440180  0.97987752    -0.27200
C1382       C  0.50630956  0.01162729  0.99742922     0.02400
C1383       C  0.52101431  0.03391462  0.00007418     0.30500
C1384       C  0.51690522  0.04870655  0.98507100    -0.19000
C1385       C  0.49812229  0.04163016  0.96719511    -0.28400
C1386       C  0.48338202  0.01913053  0.96462765     0.44500
C1387       C  0.51050062  0.99582329  0.01300929     0.05700
O1388       O  0.53943707  0.04139558  0.01740391    -0.56900
H1389       H  0.52852609  0.06579448  0.98750522     0.18600
O1390       O  0.46489506  0.01125671  0.94733846    -0.63600
H1391       H  0.47609476  0.98723215  0.97765950     0.17100
C1392       C  0.49704551  0.98278585  0.03679134     0.29300
C1393       C  0.50174638  0.96851016  0.05207513    -0.24500
C1394       C  0.51960165  0.96660610  0.04357967    -0.23800
C1395       C  0.53275211  0.97936637  0.01912721     0.40800
C1396       C  0.52827364  0.99400203  0.00432012    -0.26300
O1397       O  0.47973706  0.98449111  0.04600075    -0.58200
H1398       H  0.49124012  0.95880863  0.07056637     0.16400
O1399       O  0.55037385  0.97818279  0.01006455    -0.59600
H1400       H  0.53867742  0.00394494  0.98589821     0.14900
H1401       H  0.46881025  0.00837020  0.92686682     0.46700
H1402       H  0.46701043  0.97249615  0.03557195     0.42100
H1403       H  0.54518211  0.96791604  0.99263258     0.45500
H1404       H  0.53511844  0.04262340  0.03849987     0.37000
C1405       C  0.47608980  0.18915565  0.85358698    -0.27200
C1406       C  0.48292517  0.19464416  0.82327436     0.02400
C1407       C  0.49107471  0.18333127  0.80750346     0.30500
C1408       C  0.49201450  0.16640445  0.82212443    -0.19000
C1409       C  0.48444909  0.16029175  0.85233347    -0.28400
C1410       C  0.47660295  0.17209358  0.86809298     0.44500
C1411       C  0.47810665  0.20985834  0.80752762     0.05700
O1412       O  0.49765511  0.18836677  0.77765828    -0.56900
H1413       H  0.49815177  0.15771669  0.80948451     0.18600
O1414       O  0.46915044  0.16704854  0.89759312    -0.63600
H1415       H  0.46945987  0.19762661  0.86568188     0.17100
C1416       C  0.45681999  0.20244062  0.79785034     0.29300
C1417       C  0.45075794  0.21715861  0.78853384    -0.24500
C1418       C  0.46564112  0.23948341  0.78893639    -0.23800
C1419       C  0.48736151  0.24691593  0.79690361     0.40800
C1420       C  0.49348078  0.23203041  0.80628366    -0.26300
O1421       O  0.44159613  0.18080952  0.79865931    -0.58200
H1422       H  0.43405294  0.21108758  0.78204806     0.16400
O1423       O  0.50234486  0.26860122  0.79728927    -0.59600
H1424       H  0.50988950  0.23784200  0.81401991     0.14900
H1425       H  0.45326634  0.15740833  0.89564871     0.46700
H1426       H  0.43427140  0.17845146  0.81869099     0.42100
H1427       H  0.50189832  0.27343142  0.81838301     0.45500
H1428       H  0.48456046  0.17919561  0.76516186     0.37000
C1429       C  0.33280397  0.14242422  0.67530988    -0.27200
C1430       C  0.32885760  0.15959515  0.67274328     0.02400
C1431       C  0.31242786  0.15769033  0.65311805     0.30500
C1432       C  0.30064945  0.13907319  0.63552091    -0.19000
C1433       C  0.30482809  0.12197956  0.63742967    -0.28400
C1434       C  0.32090758  0.12366500  0.65780803     0.44500
C1435       C  0.34286374  0.18002104  0.68899748     0.05700
O1436       O  0.30792601  0.17405920  0.65078953    -0.56900
H1437       H  0.28809055  0.13796724  0.62043633     0.18600
O1438       O  0.32553107  0.10739299  0.66020318    -0.63600
H1439       H  0.34556089  0.14384282  0.69024867     0.17100
C1440       C  0.34379164  0.18086575  0.72114463     0.29300
C1441       C  0.35780660  0.20037707  0.73583090    -0.24500
C1442       C  0.37105554  0.21916488  0.71873960    -0.23800
C1443       C  0.36996202  0.21826568  0.68651975     0.40800
C1444       C  0.35582808  0.19880131  0.67190683    -0.26300
O1445       O  0.33070111  0.16285074  0.73830118    -0.58200
H1446       H  0.35842218  0.20078835  0.76064607     0.16400
O1447       O  0.38320982  0.23605791  0.66907769    -0.59600
H1448       H  0.35536154  0.19820628  0.64709441     0.14900
H1449       H  0.33660394  0.11064013  0.64431857     0.46700
H1450       H  0.33994522  0.15687970  0.74441809     0.42100
H1451       H  0.39669297  0.23562922  0.66651141     0.45500
H1452       H  0.29793527  0.17163850  0.66793432     0.37000
C1453       C  0.18353859  0.03422711  0.98880744    -0.27200
C1454       C  0.19845151  0.04622924  0.01189322     0.02400
C1455       C  0.21210758  0.03920455  0.02363563     0.30500
C1456       C  0.21146818  0.02098019  0.01124331    -0.19000
C1457       C  0.19737020  0.00950174  0.98688612    -0.28400
C1458       C  0.18274472  0.01587671  0.97647411     0.44500
C1459       C  0.20136462  0.06727680  0.02130570     0.05700
O1460       O  0.22687246  0.05065298  0.04623187    -0.56900
H1461       H  0.22266901  0.01635045  0.02006279     0.18600
O1462       O  0.16831159  0.00500478  0.95329399    -0.63600
H1463       H  0.17289514  0.03949209  0.97970817     0.17100
C1464       C  0.20902409  0.08439205  0.00015120     0.29300
C1465       C  0.21394861  0.10492444  0.00978620    -0.24500
C1466       C  0.21163886  0.10892123  0.04065578    -0.23800
C1467       C  0.20309763  0.09143172  0.06160278     0.40800
C1468       C  0.19817553  0.07086142  0.05185062    -0.26300
O1469       O  0.21269393  0.08143261  0.97023638    -0.58200
H1470       H  0.22052393  0.11795218  0.99317503     0.16400
O1471       O  0.20019670  0.09432178  0.09186351    -0.59600
H1472       H  0.19227306  0.05775238  0.06830611     0.14900
H1473       H  0.15483467  0.99421126  0.96370960     0.46700
H1474       H  0.22755698  0.08380429  0.97000240     0.42100
H1475       H  0.18550903  0.09234844  0.09292861     0.45500
H1476       H  0.24001326  0.06159416  0.03530225     0.37000
C1477       C  0.36484652  0.26169951  0.91323722    -0.27200
C1478       C  0.35096312  0.23920310  0.91410802     0.02400
C1479       C  0.35419681  0.22611672  0.89366722     0.30500
C1480       C  0.37083785  0.23555481  0.87219523    -0.19000
C1481       C  0.38454269  0.25818048  0.87050981    -0.28400
C1482       C  0.38145193  0.27126118  0.89153832     0.44500
C1483       C  0.33378290  0.22943001  0.93741996     0.05700
O1484       O  0.34112951  0.20405328  0.89447788    -0.56900
H1485       H  0.37268493  0.22500990  0.85641413     0.18600
O1486       O  0.39449973  0.29332828  0.89121510    -0.63600
H1487       H  0.36262084  0.27189433  0.92924296     0.17100
C1488       C  0.33931580  0.23073322  0.96846517     0.29300
C1489       C  0.32312685  0.22160733  0.99052416    -0.24500
C1490       C  0.30105439  0.21127543  0.98234609    -0.23800
C1491       C  0.29551551  0.20972005  0.95099913     0.40800
C1492       C  0.31188094  0.21864022  0.92877290    -0.26300
O1493       O  0.36057571  0.24041399  0.97739959    -0.58200
H1494       H  0.32806496  0.22291616  0.01428545     0.16400
O1495       O  0.27431118  0.19960633  0.94178315    -0.59600
H1496       H  0.30749913  0.21744253  0.90476848     0.14900
H1497       H  0.38642923  0.29868909  0.87912943     0.46700
H1498       H  0.36457085  0.25523186  0.98374025     0.42100
H1499       H  0.27084717  0.21128770  0.93998699     0.45500
H1500       H  0.34815130  0.19900939  0.90928489     0.37000
C1501       C  0.34679947  0.13460728  0.16611464    -0.27200
C1502       C  0.34174822  0.14976577  0.17742329     0.02400
C1503       C  0.35027755  0.15977737  0.20568554     0.30500
C1504       C  0.36421164  0.15514846  0.22189526    -0.19000
C1505       C  0.37022700  0.14071487  0.21022109    -0.28400
C1506       C  0.36107560  0.13012743  0.18219066     0.44500
C1507       C  0.32771104  0.15540803  0.15981104     0.05700
O1508       O  0.34472060  0.17385894  0.21790121    -0.56900
H1509       H  0.37064285  0.16334080  0.24351145     0.18600
O1510       O  0.36590174  0.11544391  0.17028412    -0.63600
H1511       H  0.34003873  0.12661461  0.14447192     0.17100
C1512       C  0.33601439  0.17636161  0.14788093     0.29300
C1513       C  0.32213986  0.18221861  0.13400234    -0.24500
C1514       C  0.29980608  0.16736935  0.13168754    -0.23800
C1515       C  0.29165497  0.14615247  0.14311733     0.40800
C1516       C  0.30563649  0.14032644  0.15685456    -0.26300
O1517       O  0.35765395  0.19134297  0.15015957    -0.58200
H1518       H  0.32891995  0.19853321  0.12528561     0.16400
O1519       O  0.27013702  0.13084613  0.14065113    -0.59600
H1520       H  0.29913134  0.12413854  0.16596263     0.14900
H1521       H  0.37791911  0.12380603  0.15574972     0.46700
H1522       H  0.36430983  0.18897618  0.13185990     0.42100
H1523       H  0.26372098  0.13116731  0.16058084     0.45500
H1524       H  0.35738942  0.18848287  0.21436938     0.37000
C1525       C  0.37511234  0.34649910  0.73175446    -0.27200
C1526       C  0.37032784  0.35410717  0.75841984     0.02400
C1527       C  0.37704308  0.35036035  0.78700575     0.30500
C1528       C  0.38821018  0.33911056  0.78863054    -0.19000
C1529       C  0.39291484  0.33136340  0.76199455    -0.28400
C1530       C  0.38637727  0.33532929  0.73332388     0.44500
C1531       C  0.35811705  0.36568046  0.75625120     0.05700
O1532       O  0.37277123  0.35763448  0.81354757    -0.56900
H1533       H  0.39296788  0.33621982  0.81092673     0.18600
O1534       O  0.39090045  0.32841170  0.70664425    -0.63600
H1535       H  0.36988769  0.34902313  0.70959157     0.17100
C1536       C  0.36501835  0.38371253  0.73686212     0.29300
C1537       C  0.35311948  0.39423327  0.73502883    -0.24500
C1538       C  0.33418881  0.38708096  0.75231938    -0.23800
C1539       C  0.32740137  0.36908540  0.77190761     0.40800
C1540       C  0.33925203  0.35851061  0.77357111    -0.26300
O1541       O  0.38381113  0.39164681  0.72046952    -0.58200
H1542       H  0.35881952  0.40811168  0.72001116     0.16400
O1543       O  0.30872427  0.36107356  0.78855513    -0.59600
H1544       H  0.33350275  0.34443516  0.78820673     0.14900
H1545       H  0.40546028  0.34021174  0.70054476     0.46700
H1546       H  0.37920711  0.38750076  0.69890765     0.42100
H1547       H  0.31341768  0.36749732  0.80924398     0.45500
H1548       H  0.38515987  0.37253410  0.81630380     0.37000
C1549       C  0.20382072  0.19959678  0.21825245    -0.27200
C1550       C  0.20359390  0.18542295  0.24057436     0.02400
C1551       C  0.20753438  0.16889586  0.23182360     0.30500
C1552       C  0.21249850  0.16733392  0.20121516    -0.19000
C1553       C  0.21380039  0.18224622  0.17906374    -0.28400
C1554       C  0.20873380  0.19809503  0.18781336     0.44500
C1555       C  0.20025027  0.18906485  0.27295848     0.05700
O1556       O  0.20617681  0.15403291  0.25291926    -0.56900
H1557       H  0.21597701  0.15481626  0.19508985     0.18600
O1558       O  0.20914514  0.21270419  0.16708808    -0.63600
H1559       H  0.20076311  0.21236615  0.22464436     0.17100
C1560       C  0.21626358  0.19373378  0.29524100     0.29300
C1561       C  0.21424112  0.20023911  0.32457687    -0.24500
C1562       C  0.19661219  0.20277683  0.33216815    -0.23800
C1563       C  0.18025845  0.19744418  0.31000587     0.40800
C1564       C  0.18214738  0.19058194  0.28080671    -0.26300
O1565       O  0.23455342  0.19316469  0.28813991    -0.58200
H1566       H  0.22711318  0.20424975  0.34097212     0.16400
O1567       O  0.16253595  0.19921544  0.31631789    -0.59600
H1568       H  0.16974232  0.18711939  0.26382064     0.14900
H1569       H  0.19437678  0.20562355  0.15816438     0.46700
H1570       H  0.24487400  0.20775736  0.28003500     0.42100
H1571       H  0.16605017  0.21353145  0.30809284     0.45500
H1572       H  0.22110058  0.15674758  0.25526089     0.37000
C1573       C  0.22068142  0.13663613  0.55775172    -0.27200
C1574       C  0.20205442  0.12934982  0.53972577     0.02400
C1575       C  0.18945950  0.10720390  0.53243906     0.30500
C1576       C  0.19625230  0.09288501  0.54178450    -0.19000
C1577       C  0.21575753  0.10058957  0.55784850    -0.28400
C1578       C  0.22762901  0.12246350  0.56665308     0.44500
C1579       C  0.19845485  0.14559186  0.52425434     0.05700
O1580       O  0.17126824  0.09971334  0.51460422    -0.56900
H1581       H  0.18704040  0.07609764  0.53482200     0.18600
O1582       O  0.24670871  0.13038318  0.58254275    -0.63600
H1583       H  0.23068866  0.15366047  0.56314272     0.17100
C1584       C  0.19568737  0.16077761  0.54082076     0.29300
C1585       C  0.19600507  0.17814929  0.52547168    -0.24500
C1586       C  0.19960601  0.18086581  0.49369051    -0.23800
C1587       C  0.20142197  0.16500067  0.47711427     0.40800
C1588       C  0.20085607  0.14764311  0.49241566    -0.26300
O1589       O  0.19272430  0.15875347  0.57194320    -0.58200
H1590       H  0.19422402  0.18990357  0.53862752     0.16400
O1591       O  0.20429500  0.16650233  0.44596851    -0.59600
H1592       H  0.20324250  0.13618820  0.47944877     0.14900
H1593       H  0.24248618  0.12748385  0.60441129     0.46700
H1594       H  0.20692373  0.16935858  0.58093896     0.42100
H1595       H  0.18948917  0.15917510  0.43714919     0.45500
H1596       H  0.15936319  0.09606421  0.52920578     0.37000
C1597       C  0.22860230  0.30872085  0.57422491    -0.27200
C1598       C  0.24222208  0.33058893  0.56673376     0.02400
C1599       C  0.24836322  0.33644383  0.53609900     0.30500
C1600       C  0.24095077  0.32055715  0.51345811    -0.19000
C1601       C  0.22715984  0.29856701  0.52069691    -0.28400
C1602       C  0.22097694  0.29275829  0.55153512     0.44500
C1603       C  0.25000670  0.34721298  0.59099185     0.05700
O1604       O  0.26148930  0.35770733  0.52799418    -0.56900
H1605       H  0.24598644  0.32560483  0.49005731     0.18600
O1606       O  0.20780629  0.27157778  0.55994635    -0.63600
H1607       H  0.22396660  0.30398255  0.59782918     0.17100
C1608       C  0.23535018  0.34934388  0.60971670     0.29300
C1609       C  0.24303671  0.36506442  0.63265112    -0.24500
C1610       C  0.26537304  0.37870683  0.63774965    -0.23800
C1611       C  0.28004267  0.37665775  0.61862660     0.40800
C1612       C  0.27228378  0.36107700  0.59542237    -0.26300
O1613       O  0.21347049  0.33651965  0.60518099    -0.58200
H1614       H  0.23134677  0.36625764  0.64681347     0.16400
O1615       O  0.30196367  0.38969800  0.62232746    -0.59600
H1616       H  0.28373330  0.35955291  0.58114146     0.14900
H1617       H  0.19297026  0.26928670  0.55989938     0.46700
H1618       H  0.20833908  0.32569752  0.62193799     0.42100
H1619       H  0.30641716  0.38128509  0.63537652     0.45500
H1620       H  0.25157015  0.36330634  0.52438663     0.37000
C1621       C  0.33846982  0.48002227  0.88113767    -0.27200
C1622       C  0.32700887  0.46601223  0.90537623     0.02400
C1623       C  0.30651557  0.44784836  0.89985589     0.30500
C1624       C  0.29839092  0.44297418  0.86996575    -0.19000
C1625       C  0.31046902  0.45611769  0.84531859    -0.28400
C1626       C  0.33028515  0.47518989  0.85114046     0.44500
C1627       C  0.33793419  0.46815626  0.93495680     0.05700
O1628       O  0.29476797  0.43431599  0.92343350    -0.56900
H1629       H  0.28305959  0.42830756  0.86582827     0.18600
O1630       O  0.34251406  0.48825392  0.82749192    -0.63600
H1631       H  0.35437509  0.49394214  0.88519156     0.17100
C1632       C  0.34720783  0.45536759  0.94076745     0.29300
C1633       C  0.35714939  0.45678953  0.96891516    -0.24500
C1634       C  0.35791963  0.47078796  0.99199816    -0.23800
C1635       C  0.34854148  0.48366103  0.98602120     0.40800
C1636       C  0.33875162  0.48234800  0.95753762    -0.26300
O1637       O  0.34694723  0.44167294  0.91871164    -0.58200
H1638       H  0.36424669  0.44677793  0.97258047     0.16400
O1639       O  0.34882450  0.49757068  0.00768760    -0.59600
H1640       H  0.33156009  0.49220749  0.95320079     0.14900
H1641       H  0.35191723  0.48254640  0.82120432     0.46700
H1642       H  0.33487338  0.42714403  0.92438464     0.42100
H1643       H  0.33509252  0.48910986  0.01910820     0.45500
H1644       H  0.29707078  0.42185857  0.92206700     0.37000
C1645       C  0.34057168  0.35162167  0.06572670    -0.27200
C1646       C  0.33133706  0.34046882  0.09307792     0.02400
C1647       C  0.33347024  0.35220972  0.11983423     0.30500
C1648       C  0.34423161  0.37478898  0.11881991    -0.19000
C1649       C  0.35307990  0.38611014  0.09130750    -0.28400
C1650       C  0.35142583  0.37425033  0.06466509     0.44500
C1651       C  0.31903351  0.31656030  0.09323988     0.05700
O1652       O  0.32574437  0.34173099  0.14727988    -0.56900
H1653       H  0.34569950  0.38343030  0.13981815     0.18600
O1654       O  0.35968075  0.38447524  0.03725199    -0.63600
H1655       H  0.33901425  0.34271071  0.04496484     0.17100
C1656       C  0.29701973  0.30509583  0.10126454     0.29300
C1657       C  0.28545285  0.28251872  0.10052732    -0.24500
C1658       C  0.29544300  0.27092006  0.09158397    -0.23800
C1659       C  0.31759093  0.28248497  0.08362336     0.40800
C1660       C  0.32912716  0.30511613  0.08433189    -0.26300
O1661       O  0.28650221  0.31582828  0.10917333    -0.58200
H1662       H  0.26849124  0.27408588  0.10662759     0.16400
O1663       O  0.32790462  0.27195633  0.07375159    -0.59600
H1664       H  0.34601495  0.31378444  0.07779929     0.14900
H1665       H  0.37409002  0.38582016  0.03570012     0.46700
H1666       H  0.28193927  0.31924391  0.08947455     0.42100
H1667       H  0.33544907  0.27076759  0.09209867     0.45500
H1668       H  0.31341593  0.34368404  0.15250735     0.37000
C1669       C  0.47120753  0.32085802  0.54703548    -0.27200
C1670       C  0.48302152  0.33498207  0.57091496     0.02400
C1671       C  0.49873510  0.35646704  0.56402853     0.30500
C1672       C  0.50164792  0.36389449  0.53365005    -0.19000
C1673       C  0.48881126  0.35014988  0.50975466    -0.28400
C1674       C  0.47396269  0.32819839  0.51670828     0.44500
C1675       C  0.47657633  0.32792809  0.60295988     0.05700
O1676       O  0.51057207  0.37058959  0.58701403    -0.56900
H1677       H  0.51321332  0.38075378  0.52909996     0.18600
O1678       O  0.46171341  0.31380424  0.49419771    -0.63600
H1679       H  0.45909399  0.30424386  0.55211925     0.17100
C1680       C  0.45712761  0.32547175  0.61399645     0.29300
C1681       C  0.45069253  0.31864893  0.64406113    -0.24500
C1682       C  0.46326676  0.31385771  0.66382162    -0.23800
C1683       C  0.48290421  0.31641954  0.65271077     0.40800
C1684       C  0.48943126  0.32345535  0.62243960    -0.26300
O1685       O  0.44448711  0.33018505  0.59564234    -0.58200
H1686       H  0.43565712  0.31708086  0.65183159     0.16400
O1687       O  0.49544888  0.31141162  0.67073827    -0.59600
H1688       H  0.50439567  0.32517414  0.61403972     0.14900
H1689       H  0.44730901  0.31250668  0.49549621     0.46700
H1690       H  0.43343948  0.31613986  0.58676440     0.42100
H1691       H  0.50658351  0.32534913  0.67978189     0.45500
H1692       H  0.50191926  0.37708096  0.59359978     0.37000
C1693       C  0.45488719  0.25017308  0.28454393    -0.27200
C1694       C  0.47438330  0.26318486  0.30020340     0.02400
C1695       C  0.48889313  0.25560358  0.30451045     0.30500
C1696       C  0.48322926  0.23479076  0.29478330    -0.19000
C1697       C  0.46306848  0.22130419  0.28101777    -0.28400
C1698       C  0.44921581  0.22942679  0.27492186     0.44500
C1699       C  0.47810874  0.28336153  0.31494656     0.05700
O1700       O  0.50816939  0.26801739  0.31950739    -0.56900
H1701       H  0.49402592  0.22874782  0.29963305     0.18600
O1702       O  0.42960685  0.21681043  0.26078706    -0.63600
H1703       H  0.44346023  0.25563140  0.28122750     0.17100
C1704       C  0.47682556  0.29950580  0.29824098     0.29300
C1705       C  0.47856431  0.31748690  0.31348460    -0.24500
C1706       C  0.48096741  0.31931275  0.34547888    -0.23800
C1707       C  0.48265812  0.30333584  0.36202463     0.40800
C1708       C  0.48121618  0.28558797  0.34677335    -0.26300
O1709       O  0.47414783  0.29794397  0.26702094    -0.58200
H1710       H  0.47734666  0.32966696  0.30036772     0.16400
O1711       O  0.48560374  0.30482362  0.39318825    -0.59600
H1712       H  0.48193826  0.27317774  0.36002281     0.14900
H1713       H  0.43282124  0.21831961  0.23854976     0.46700
H1714       H  0.45899079  0.29416931  0.26336115     0.42100
H1715       H  0.50147981  0.31366943  0.39625360     0.45500
H1716       H  0.51847957  0.27720621  0.30338697     0.37000
C1717       C  0.45667343  0.41536493  0.25699354    -0.27200
C1718       C  0.45187178  0.43175008  0.26244017     0.02400
C1719       C  0.45522030  0.44068812  0.29201848     0.30500
C1720       C  0.46206083  0.43248416  0.31587974    -0.19000
C1721       C  0.46620885  0.41561841  0.31076879    -0.28400
C1722       C  0.46389291  0.40737195  0.28081991     0.44500
C1723       C  0.44253755  0.43888107  0.23770057     0.05700
O1724       O  0.45164219  0.45735403  0.29793310    -0.56900
H1725       H  0.46406342  0.43932801  0.33857373     0.18600
O1726       O  0.46784848  0.39097626  0.27476817    -0.63600
H1727       H  0.45414533  0.40823588  0.23442787     0.17100
C1728       C  0.45292345  0.44626414  0.20926299     0.29300
C1729       C  0.44399661  0.45342882  0.18675097    -0.24500
C1730       C  0.42438550  0.45290626  0.19172922    -0.23800
C1731       C  0.41387143  0.44525220  0.22008242     0.40800
C1732       C  0.42296723  0.43838173  0.24274051    -0.26300
O1733       O  0.47216261  0.44720621  0.20363129    -0.58200
H1734       H  0.45229351  0.45903871  0.16504402     0.16400
O1735       O  0.39476835  0.44450006  0.22600903    -0.59600
H1736       H  0.41461589  0.43250904  0.26436166     0.14900
H1737       H  0.45384127  0.37744901  0.27808730     0.46700
H1738       H  0.46848672  0.43486391  0.18984007     0.42100
H1739       H  0.39900376  0.45869940  0.23529818     0.45500
H1740       H  0.46502634  0.47061193  0.29135676     0.37000
C1741       C  0.32106328  0.31209792  0.40411391    -0.27200
C1742       C  0.33157874  0.30277058  0.41933312     0.02400
C1743       C  0.31921718  0.28257832  0.43375499     0.30500
C1744       C  0.29660283  0.27215299  0.43316025    -0.19000
C1745       C  0.28599943  0.28161907  0.41830363    -0.28400
C1746       C  0.29849562  0.30166824  0.40335607     0.44500
C1747       C  0.35547231  0.31463779  0.42039958     0.05700
O1748       O  0.32911789  0.27355818  0.44994142    -0.56900
H1749       H  0.28737524  0.25688702  0.44510850     0.18600
O1750       O  0.28887715  0.31128044  0.38797824    -0.63600
H1751       H  0.33044122  0.32756832  0.39270950     0.17100
C1752       C  0.36729116  0.30585210  0.40768141     0.29300
C1753       C  0.38989511  0.31790631  0.40767522    -0.24500
C1754       C  0.40105538  0.33898984  0.41963614    -0.23800
C1755       C  0.38917473  0.34766836  0.43264883     0.40800
C1756       C  0.36656995  0.33545931  0.43304729    -0.26300
O1757       O  0.35691230  0.28578030  0.39438149    -0.58200
H1758       H  0.39869330  0.31098937  0.39732835     0.16400
O1759       O  0.39948548  0.36779911  0.44578637    -0.59600
H1760       H  0.35763131  0.34232584  0.44309785     0.14900
H1761       H  0.28640291  0.30537281  0.36688918     0.46700
H1762       H  0.35421136  0.28828599  0.37286986     0.42100
H1763       H  0.39874270  0.37752292  0.43025394     0.45500
H1764       H  0.32677879  0.26094677  0.43768088     0.37000
C1765       C  0.53710896  0.37787797  0.82017083    -0.27200
C1766       C  0.53515890  0.38783651  0.84644324     0.02400
C1767       C  0.51526796  0.37844214  0.86186346     0.30500
C1768       C  0.49730321  0.35985912  0.84998240    -0.19000
C1769       C  0.49889886  0.35033009  0.82275157    -0.28400
C1770       C  0.51926486  0.35932391  0.80825409     0.44500
C1771       C  0.55263093  0.40989843  0.85400749     0.05700
O1772       O  0.51281148  0.38827462  0.88712787    -0.56900
H1773       H  0.48194640  0.35330693  0.86164690     0.18600
O1774       O  0.52181871  0.35075217  0.78167509    -0.63600
H1775       H  0.55233066  0.38516982  0.80797014     0.17100
C1776       C  0.56464407  0.41480005  0.88138428     0.29300
C1777       C  0.57980875  0.43639636  0.88849618    -0.24500
C1778       C  0.58292134  0.45316683  0.86856750    -0.23800
C1779       C  0.57154228  0.44794714  0.84049587     0.40800
C1780       C  0.55658719  0.42650574  0.83347774    -0.26300
O1781       O  0.56125451  0.39871980  0.90159214    -0.58200
H1782       H  0.58840836  0.44009172  0.91014164     0.16400
O1783       O  0.57445874  0.46375654  0.82004343    -0.59600
H1784       H  0.54751337  0.42285847  0.81223044     0.14900
H1785       H  0.51956376  0.35877969  0.76492678     0.46700
H1786       H  0.57148413  0.39402644  0.89531419     0.42100
H1787       H  0.58673662  0.46607317  0.80702354     0.45500
H1788       H  0.51488846  0.38090129  0.90493338     0.37000
C1789       C  0.49438446  0.51398170  0.01526882    -0.27200
C1790       C  0.49709531  0.49908971  0.99817342     0.02400
C1791       C  0.48061034  0.47716558  0.99806094     0.30500
C1792       C  0.46170521  0.47041730  0.01507900    -0.19000
C1793       C  0.45916190  0.48530535  0.03258385    -0.28400
C1794       C  0.47567584  0.50727560  0.03244080     0.44500
C1795       C  0.51758349  0.50663573  0.98150089     0.05700
O1796       O  0.48339255  0.46210612  0.98277506    -0.56900
H1797       H  0.44929710  0.45346481  0.01523586     0.18600
O1798       O  0.47334273  0.52247717  0.04815572    -0.63600
H1799       H  0.50687560  0.53091362  0.01531779     0.17100
C1800       C  0.51783316  0.50426839  0.94957009     0.29300
C1801       C  0.53741010  0.51093906  0.93457680    -0.24500
C1802       C  0.55704662  0.52040778  0.95095508    -0.23800
C1803       C  0.55677750  0.52338009  0.98286619     0.40800
C1804       C  0.53716473  0.51659377  0.99780497    -0.26300
O1805       O  0.49905013  0.49552855  0.93280882    -0.58200
H1806       H  0.53720407  0.50868276  0.91002405     0.16400
O1807       O  0.57546440  0.53235391  0.99987629    -0.59600
H1808       H  0.53718143  0.51867416  0.02238435     0.14900
H1809       H  0.48190279  0.52520089  0.06722947     0.46700
H1810       H  0.49671797  0.50776019  0.92850816     0.42100
H1811       H  0.57713110  0.52000328  0.00626975     0.45500
H1812       H  0.47359865  0.45784457  0.96477459     0.37000
C1813       C  0.38252031  0.50742327  0.65010971    -0.27200
C1814       C  0.39127547  0.52769942  0.66404168     0.02400
C1815       C  0.38095951  0.53009629  0.68977170     0.30500
C1816       C  0.36236736  0.51210738  0.70162877    -0.19000
C1817       C  0.35401630  0.49151738  0.68839081    -0.28400
C1818       C  0.36412788  0.48945159  0.66196871     0.44500
C1819       C  0.41224014  0.54548463  0.65283054     0.05700
O1820       O  0.38878320  0.54999450  0.70310991    -0.56900
H1821       H  0.35480877  0.51423937  0.72166229     0.18600
O1822       O  0.35653312  0.46987533  0.64780380    -0.63600
H1823       H  0.39041933  0.50536065  0.63041019     0.17100
C1824       C  0.43065192  0.55400473  0.67173191     0.29300
C1825       C  0.45100138  0.56822960  0.65960758    -0.24500
C1826       C  0.45360865  0.57394416  0.62836178    -0.23800
C1827       C  0.43500611  0.56597746  0.60965016     0.40800
C1828       C  0.41452869  0.55186967  0.62197873    -0.26300
O1829       O  0.42911050  0.54759787  0.70171892    -0.58200
H1830       H  0.46490898  0.57402192  0.67463167     0.16400
O1831       O  0.43658772  0.57174935  0.57937284    -0.59600
H1832       H  0.40043546  0.54533999  0.60718298     0.14900
H1833       H  0.34604609  0.46908738  0.63224461     0.46700
H1834       H  0.43009854  0.53431964  0.70119293     0.42100
H1835       H  0.43597655  0.55955671  0.56788785     0.45500
H1836       H  0.39453066  0.54900114  0.72337645     0.37000
C1837       C  0.53617503  0.69913895  0.69815722    -0.27200
C1838       C  0.53259520  0.71418441  0.68263176     0.02400
C1839       C  0.52766437  0.71138571  0.65110413     0.30500
C1840       C  0.52756283  0.69440772  0.63526450    -0.19000
C1841       C  0.53191738  0.67982532  0.65059897    -0.28400
C1842       C  0.53566222  0.68194787  0.68249052     0.44500
C1843       C  0.53781869  0.73455210  0.69820924     0.05700
O1844       O  0.52472254  0.72617885  0.63511779    -0.56900
H1845       H  0.52444791  0.69287509  0.61081823     0.18600
O1846       O  0.54055102  0.66835524  0.69812351    -0.63600
H1847       H  0.54027855  0.70127111  0.72231887     0.17100
C1848       C  0.52292298  0.74174872  0.70037090     0.29300
C1849       C  0.52962258  0.76240825  0.71221723    -0.24500
C1850       C  0.55117244  0.77610120  0.72151593    -0.23800
C1851       C  0.56557742  0.76816088  0.72106228     0.40800
C1852       C  0.55886616  0.74765697  0.70943115    -0.26300
O1853       O  0.50184283  0.72861433  0.69128745    -0.58200
H1854       H  0.51821319  0.76804281  0.71285900     0.16400
O1855       O  0.58651882  0.78054108  0.73114133    -0.59600
H1856       H  0.57045607  0.74225688  0.70814939     0.14900
H1857       H  0.52682553  0.65748575  0.70791976     0.46700
H1858       H  0.49975995  0.73593424  0.67340764     0.42100
H1859       H  0.58596470  0.77765433  0.75345063     0.45500
H1860       H  0.50910383  0.71859295  0.62992735     0.37000
C1861       C  0.53088408  0.52728277  0.50935350    -0.27200
C1862       C  0.50981352  0.50935736  0.50998244     0.02400
C1863       C  0.49334746  0.51117064  0.52450025     0.30500
C1864       C  0.49799799  0.53087921  0.53752599    -0.19000
C1865       C  0.51903019  0.54892342  0.53659203    -0.28400
C1866       C  0.53556041  0.54695570  0.52245834     0.44500
C1867       C  0.50520304  0.48892748  0.49514898     0.05700
O1868       O  0.47293707  0.49348345  0.52724854    -0.56900
H1869       H  0.48517616  0.53193890  0.54884581     0.18600
O1870       O  0.55626674  0.56423866  0.52084787    -0.63600
H1871       H  0.54369229  0.52610014  0.49821463     0.17100
C1872       C  0.48976336  0.47973102  0.47150946     0.29300
C1873       C  0.48561878  0.46044433  0.45777271    -0.24500
C1874       C  0.49702114  0.45015456  0.46673263    -0.23800
C1875       C  0.51272702  0.45958706  0.49021502     0.40800
C1876       C  0.51672123  0.47882994  0.50411511    -0.26300
O1877       O  0.47896653  0.48973260  0.46115842    -0.58200
H1878       H  0.47373466  0.45380897  0.43950455     0.16400
O1879       O  0.52434581  0.45025905  0.49975291    -0.59600
H1880       H  0.52877622  0.48584128  0.52213247     0.14900
H1881       H  0.55657958  0.57218473  0.50204260     0.46700
H1882       H  0.48843187  0.50001880  0.44520106     0.42100
H1883       H  0.51573475  0.44030466  0.51657060     0.45500
H1884       H  0.46355956  0.49655369  0.51397897     0.37000
C1885       C  0.56233037  0.58768131  0.73763768    -0.27200
C1886       C  0.58069872  0.58594352  0.73295987     0.02400
C1887       C  0.59044603  0.59066566  0.70394098     0.30500
C1888       C  0.58138009  0.59629180  0.67979007    -0.19000
C1889       C  0.56266248  0.59757801  0.68408077    -0.28400
C1890       C  0.55334675  0.59354398  0.71357172     0.44500
C1891       C  0.58839808  0.57729765  0.75762008     0.05700
O1892       O  0.60804246  0.58848588  0.69850240    -0.56900
H1893       H  0.58897209  0.59942471  0.65750165     0.18600
O1894       O  0.53527621  0.59487569  0.71910559    -0.63600
H1895       H  0.55470212  0.58408586  0.75994094     0.17100
C1896       C  0.60959344  0.58919397  0.76928229     0.29300
C1897       C  0.61670723  0.57995239  0.79132605    -0.24500
C1898       C  0.60279192  0.55893331  0.80248912    -0.23800
C1899       C  0.58145511  0.54716386  0.79084943     0.40800
C1900       C  0.57445080  0.55641324  0.76875248    -0.26300
O1901       O  0.62337735  0.60994251  0.75955584    -0.58200
H1902       H  0.63301918  0.58949652  0.80021320     0.16400
O1903       O  0.56723637  0.52659920  0.80083774    -0.59600
H1904       H  0.55811176  0.54707159  0.75985368     0.14900
H1905       H  0.52288307  0.58006752  0.71562612     0.46700
H1906       H  0.62084136  0.61924427  0.77359186     0.42100
H1907       H  0.56927125  0.51695240  0.78680485     0.45500
H1908       H  0.62051545  0.60345676  0.69700048     0.37000
C1909       C  0.51233776  0.63584322  0.43054823    -0.27200
C1910       C  0.52472177  0.65793686  0.42336656     0.02400
C1911       C  0.53400962  0.67300852  0.44736586     0.30500
C1912       C  0.53181985  0.66585818  0.47772987    -0.19000
C1913       C  0.52049903  0.64366319  0.48491167    -0.28400
C1914       C  0.51010791  0.62864290  0.46094837     0.44500
C1915       C  0.52951497  0.66496634  0.39085048     0.05700
O1916       O  0.54619756  0.69473497  0.44131810    -0.56900
H1917       H  0.53978369  0.67778525  0.49562321     0.18600
O1918       O  0.49900637  0.60683091  0.46658772    -0.63600
H1919       H  0.50493248  0.62404455  0.41235939     0.17100
C1920       C  0.53907150  0.65646221  0.37163296     0.29300
C1921       C  0.54473951  0.66403448  0.34160877    -0.24500
C1922       C  0.54151824  0.68051981  0.33018879    -0.23800
C1923       C  0.53164446  0.68883282  0.34930315     0.40800
C1924       C  0.52571526  0.68102654  0.37931275    -0.26300
O1925       O  0.54373890  0.64130325  0.38235415    -0.58200
H1926       H  0.55251668  0.65752523  0.32763918     0.16400
O1927       O  0.52799865  0.70480171  0.33915166    -0.59600
H1928       H  0.51832063  0.68769958  0.39374959     0.14900
H1929       H  0.48364662  0.60282439  0.46834548     0.46700
H1930       H  0.55809714  0.64970172  0.39237831     0.42100
H1931       H  0.51344529  0.69708905  0.32954522     0.45500
H1932       H  0.56107393  0.69760089  0.43789038     0.37000
C1933       C  0.44622388  0.58745250  0.12583352    -0.27200
C1934       C  0.46847789  0.59590922  0.12115906     0.02400
C1935       C  0.47550332  0.58269012  0.10801200     0.30500
C1936       C  0.46058567  0.56100985  0.10188605    -0.19000
C1937       C  0.43853519  0.55223330  0.10816496    -0.28400
C1938       C  0.43121299  0.56578080  0.11904776     0.44500
C1939       C  0.48438953  0.61685418  0.13510993     0.05700
O1940       O  0.49711954  0.59018711  0.10400034    -0.56900
H1941       H  0.46641017  0.55077248  0.09323028     0.18600
O1942       O  0.40980313  0.55756676  0.12578731    -0.63600
H1943       H  0.44062662  0.59740811  0.13618658     0.17100
C1944       C  0.50149642  0.63342677  0.11819750     0.29300
C1945       C  0.51814073  0.65142892  0.13340528    -0.24500
C1946       C  0.51797728  0.65307393  0.16547187    -0.23800
C1947       C  0.50015368  0.63707136  0.18201680     0.40800
C1948       C  0.48361974  0.61919843  0.16684919    -0.26300
O1949       O  0.50244305  0.63184546  0.08701250    -0.58200
H1950       H  0.53157798  0.66367798  0.12025017     0.16400
O1951       O  0.49892946  0.63846740  0.21319700    -0.59600
H1952       H  0.47056204  0.60661709  0.18017956     0.14900
H1953       H  0.40352791  0.56035745  0.10727428     0.46700
H1954       H  0.49376558  0.63785788  0.07852384     0.42100
H1955       H  0.49230621  0.64751746  0.21636319     0.45500
H1956       H  0.49943647  0.59189844  0.08154198     0.37000
C1957       C  0.52869822  0.78151051  0.21430979    -0.27200
C1958       C  0.52943543  0.78763315  0.18363940     0.02400
C1959       C  0.53625367  0.77852546  0.16107168     0.30500
C1960       C  0.54285813  0.76396669  0.16944350    -0.19000
C1961       C  0.54286086  0.75824759  0.20031749    -0.28400
C1962       C  0.53529235  0.76692355  0.22279205     0.44500
C1963       C  0.52550794  0.80532517  0.17569708     0.05700
O1964       O  0.53810268  0.78505078  0.13109402    -0.56900
H1965       H  0.54872523  0.75776724  0.15168963     0.18600
O1966       O  0.53454737  0.76158078  0.25314542    -0.63600
H1967       H  0.52353595  0.78853496  0.23184722     0.17100
C1968       C  0.50927032  0.80226583  0.15473760     0.29300
C1969       C  0.50823006  0.82008120  0.14393971    -0.24500
C1970       C  0.52322295  0.84113100  0.15394920    -0.23800
C1971       C  0.53849841  0.84383046  0.17674790     0.40800
C1972       C  0.53954651  0.82600664  0.18728410    -0.26300
O1973       O  0.49485704  0.78203389  0.14384948    -0.58200
H1974       H  0.49612009  0.81743716  0.12688002     0.16400
O1975       O  0.55328226  0.86389148  0.18779759    -0.59600
H1976       H  0.55204700  0.82849535  0.20358394     0.14900
H1977       H  0.54812213  0.77338357  0.26222871     0.46700
H1978       H  0.48331220  0.77548806  0.15951211     0.42100
H1979       H  0.54639877  0.86590637  0.20613368     0.45500
H1980       H  0.52556945  0.77303998  0.12036351     0.37000
C1981       C  0.68161374  0.85757086  0.32939020    -0.27200
C1982       C  0.67359928  0.83784575  0.34487683     0.02400
C1983       C  0.67979748  0.83763300  0.37532796     0.30500
C1984       C  0.69413754  0.85705493  0.38987757    -0.19000
C1985       C  0.70243727  0.87698970  0.37446987    -0.28400
C1986       C  0.69590098  0.87709115  0.34394364     0.44500
C1987       C  0.65877136  0.81755038  0.32895133     0.05700
O1988       O  0.67194385  0.81851160  0.39100698    -0.56900
H1989       H  0.69868478  0.85644951  0.41340562     0.18600
O1990       O  0.70393077  0.89601126  0.32773283    -0.63600
H1991       H  0.67691324  0.85778819  0.30581748     0.17100
C1992       C  0.63744844  0.81212881  0.32244304     0.29300
C1993       C  0.62377638  0.79321750  0.30629863    -0.24500
C1994       C  0.63120485  0.77961834  0.29593152    -0.23800
C1995       C  0.65262745  0.78502742  0.30292048     0.40800
C1996       C  0.66615105  0.80380592  0.31957520    -0.26300
O1997       O  0.62975255  0.82507421  0.33223728    -0.58200
H1998       H  0.60742224  0.78945385  0.30137915     0.16400
O1999       O  0.66041057  0.77194246  0.29414372    -0.59600
H2000       H  0.68257242  0.80786601  0.32473527     0.14900
H2001       H  0.69273895  0.90015657  0.32932023     0.46700
H2002       H  0.63203620  0.83490047  0.31480120     0.42100
H2003       H  0.66879394  0.77864020  0.27522057     0.45500
H2004       H  0.65851564  0.81612399  0.40095080     0.37000
C2005       C  0.82111249  0.97409096  0.98127827    -0.27200
C2006       C  0.80573647  0.95324367  0.99139094     0.02400
C2007       C  0.78937193  0.95074689  0.01153517     0.30500
C2008       C  0.78935039  0.96886045  0.02279611    -0.19000
C2009       C  0.80529187  0.98983044  0.01399217    -0.28400
C2010       C  0.82085498  0.99233516  0.99220156     0.44500
C2011       C  0.80698870  0.93406716  0.98202945     0.05700
O2012       O  0.77350160  0.93060701  0.02089450    -0.56900
H2013       H  0.77690121  0.96643694  0.03895274     0.18600
O2014       O  0.83665689  0.01249731  0.98289800    -0.63600
H2015       H  0.83377102  0.97629503  0.96570558     0.17100
C2016       C  0.80662601  0.92863737  0.95102631     0.29300
C2017       C  0.80459988  0.90877079  0.94317743    -0.24500
C2018       C  0.80294946  0.89404463  0.96593756    -0.23800
C2019       C  0.80495124  0.90034506  0.99698771     0.40800
C2020       C  0.80695763  0.92014844  0.00470182    -0.26300
O2021       O  0.80644596  0.94179068  0.92830762    -0.58200
H2022       H  0.80313174  0.90444617  0.91917829     0.16400
O2023       O  0.80380206  0.88686283  0.02018138    -0.59600
H2024       H  0.80771242  0.92433404  0.02868638     0.14900
H2025       H  0.83102415  0.01532415  0.96373046     0.46700
H2026       H  0.82134764  0.94947347  0.92005175     0.42100
H2027       H  0.81891298  0.89038089  0.02358416     0.45500
H2028       H  0.76234027  0.92542753  0.00455390     0.37000
C2029       C  0.69508261  0.69525346  0.92549365    -0.27200
C2030       C  0.70685724  0.68475216  0.92944917     0.02400
C2031       C  0.72936173  0.69704230  0.93365166     0.30500
C2032       C  0.73993720  0.71961137  0.93281601    -0.19000
C2033       C  0.72831617  0.73032959  0.92801941    -0.28400
C2034       C  0.70556288  0.71783418  0.92490303     0.44500
C2035       C  0.69570336  0.66102542  0.92665903     0.05700
O2036       O  0.74117877  0.68711076  0.93823820    -0.56900
H2037       H  0.75731712  0.72871409  0.93595149     0.18600
O2038       O  0.69341873  0.72740420  0.92024315    -0.63600
H2039       H  0.67772966  0.68587944  0.92205960     0.17100
C2040       C  0.67942952  0.64743228  0.94727905     0.29300
C2041       C  0.66803261  0.62505889  0.94262738    -0.24500
C2042       C  0.67256241  0.61588556  0.91736325    -0.23800
C2043       C  0.68921538  0.62969869  0.89700177     0.40800
C2044       C  0.70068548  0.65200265  0.90194336    -0.26300
O2045       O  0.67439662  0.65588950  0.97183116    -0.58200
H2046       H  0.65540829  0.61493080  0.95866242     0.16400
O2047       O  0.69444276  0.62170292  0.87209382    -0.59600
H2048       H  0.71315756  0.66239631  0.88586584     0.14900
H2049       H  0.68796628  0.72807670  0.94079874     0.46700
H2050       H  0.68463154  0.65730713  0.98825380     0.42100
H2051       H  0.68619687  0.62299498  0.85472810     0.45500
H2052       H  0.74010464  0.68392124  0.96049567     0.37000
C2053       C  0.70580540  0.79215222  0.08020191    -0.27200
C2054       C  0.68411753  0.77793333  0.07190345     0.02400
C2055       C  0.67897551  0.77204476  0.04103351     0.30500
C2056       C  0.69530340  0.77996221  0.01918196    -0.19000
C2057       C  0.71717861  0.79360372  0.02738625    -0.28400
C2058       C  0.72232191  0.79982638  0.05829234     0.44500
C2059       C  0.66707654  0.76830790  0.09562105     0.05700
O2060       O  0.65807195  0.75801937  0.03201275    -0.56900
H2061       H  0.69067776  0.77486454  0.99567012     0.18600
O2062       O  0.74328888  0.81341548  0.06737583    -0.63600
H2063       H  0.70998572  0.79712053  0.10384418     0.17100
C2064       C  0.66947271  0.75762191  0.12106245     0.29300
C2065       C  0.65300328  0.74794990  0.14272285    -0.24500
C2066       C  0.63382937  0.74852695  0.13945915    -0.23800
C2067       C  0.63120578  0.75886192  0.11370753     0.40800
C2068       C  0.64784175  0.76879431  0.09214164    -0.26300
O2069       O  0.68740683  0.75562001  0.12414186    -0.58200
H2070       H  0.65519339  0.73973778  0.16206861     0.16400
O2071       O  0.61265405  0.75961362  0.10957069    -0.59600
H2072       H  0.64574561  0.77696648  0.07267354     0.14900
H2073       H  0.74853556  0.80377040  0.07459302     0.46700
H2074       H  0.69602761  0.76562247  0.14091546     0.42100
H2075       H  0.61534389  0.77294785  0.12018035     0.45500
H2076       H  0.65606107  0.74338473  0.03456255     0.37000
C2077       C  0.68098085  0.82394415  0.86948342    -0.27200
C2078       C  0.68947755  0.84208012  0.85024234     0.02400
C2079       C  0.71192850  0.85443290  0.84565396     0.30500
C2080       C  0.72553194  0.84823330  0.85957094    -0.19000
C2081       C  0.71708870  0.82967494  0.87816609    -0.28400
C2082       C  0.69454640  0.81772031  0.88351302     0.44500
C2083       C  0.67463540  0.84727173  0.83381354     0.05700
O2084       O  0.72071844  0.87296243  0.82833775    -0.56900
H2085       H  0.74277638  0.85804511  0.85566707     0.18600
O2086       O  0.68551072  0.79990791  0.90227415    -0.63600
H2087       H  0.66369392  0.81436186  0.87324544     0.17100
C2088       C  0.67371873  0.84677003  0.80161554     0.29300
C2089       C  0.65886003  0.85055624  0.78625160    -0.24500
C2090       C  0.64460726  0.85480670  0.80252086    -0.23800
C2091       C  0.64568883  0.85555215  0.83483759     0.40800
C2092       C  0.66052812  0.85161020  0.85023726    -0.26300
O2093       O  0.68686619  0.84195766  0.78494643    -0.58200
H2094       H  0.65827855  0.84983733  0.76145128     0.16400
O2095       O  0.63150860  0.85882210  0.85161919    -0.59600
H2096       H  0.66090316  0.85173975  0.87506075     0.14900
H2097       H  0.68525295  0.80549187  0.92291381     0.46700
H2098       H  0.67921666  0.82594484  0.78426067     0.42100
H2099       H  0.63946821  0.87445938  0.85659531     0.45500
H2100       H  0.72637245  0.86975448  0.80965023     0.37000
C2101       C  0.80638208  0.78313043  0.73525225    -0.27200
C2102       C  0.81781970  0.80537607  0.74123406     0.02400
C2103       C  0.82965040  0.81976142  0.71733364     0.30500
C2104       C  0.82979344  0.81172426  0.68797534    -0.19000
C2105       C  0.81793751  0.78937114  0.68181360    -0.28400
C2106       C  0.80623559  0.77509616  0.70608037     0.44500
C2107       C  0.81685693  0.81279410  0.77270148     0.05700
O2108       O  0.84175269  0.84156878  0.72276909    -0.56900
H2109       H  0.83904467  0.82305420  0.66995582     0.18600
O2110       O  0.79498915  0.75311960  0.70190740    -0.63600
H2111       H  0.79722958  0.77181743  0.75336771     0.17100
C2112       C  0.80793411  0.82598216  0.77827766     0.29300
C2113       C  0.80356910  0.82939927  0.80841840    -0.24500
C2114       C  0.80758294  0.81946335  0.83339909    -0.23800
C2115       C  0.81782360  0.80743536  0.82782439     0.40800
C2116       C  0.82226183  0.80414326  0.79778556    -0.26300
O2117       O  0.80212119  0.83446670  0.75440668    -0.58200
H2118       H  0.79574966  0.83872921  0.81202076     0.16400
O2119       O  0.82281152  0.79805544  0.85144895    -0.59600
H2120       H  0.82923853  0.79405887  0.79395671     0.14900
H2121       H  0.77972121  0.74920549  0.69880963     0.46700
H2122       H  0.78711566  0.82319283  0.74906048     0.42100
H2123       H  0.83744433  0.80927327  0.85838931     0.45500
H2124       H  0.83423505  0.84796316  0.71171092     0.37000
C2125       C  0.81044050  0.84091638  0.47794820    -0.27200
C2126       C  0.81668885  0.85945352  0.49564691     0.02400
C2127       C  0.82541917  0.86080202  0.52511183     0.30500
C2128       C  0.82676776  0.84340099  0.53699147    -0.19000
C2129       C  0.81947306  0.82435987  0.51992502    -0.28400
C2130       C  0.81188522  0.82353261  0.48973857     0.44500
C2131       C  0.81152471  0.87594306  0.48480180     0.05700
O2132       O  0.83187737  0.87873737  0.54300103    -0.56900
H2133       H  0.83274769  0.84452871  0.56015258     0.18600
O2134       O  0.80518072  0.80556853  0.47182967    -0.63600
H2135       H  0.80346307  0.83945376  0.45539607     0.17100
C2136       C  0.81761551  0.88554820  0.45552740     0.29300
C2137       C  0.81048549  0.89944710  0.44513824    -0.24500
C2138       C  0.79692690  0.90350422  0.46345702    -0.23800
C2139       C  0.79172182  0.89463841  0.49320407     0.40800
C2140       C  0.79884997  0.88092551  0.50350146    -0.26300
O2141       O  0.83062601  0.88156149  0.43712040    -0.58200
H2142       H  0.81480334  0.90629787  0.42232877     0.16400
O2143       O  0.77922653  0.89891253  0.51227963    -0.59600
H2144       H  0.79382772  0.87357751  0.52594124     0.14900
H2145       H  0.81829295  0.80815110  0.46069569     0.46700
H2146       H  0.82104289  0.87199115  0.42061907     0.42100
H2147       H  0.78942245  0.91292496  0.52209614     0.45500
H2148       H  0.84689407  0.88912643  0.53652551     0.37000
C2149       C  0.69455632  0.69844127  0.59732519    -0.27200
C2150       C  0.68462126  0.70135481  0.57145596     0.02400
C2151       C  0.69759529  0.71496665  0.54772959     0.30500
C2152       C  0.72015433  0.72511870  0.54982846    -0.19000
C2153       C  0.73026474  0.72186582  0.57542603    -0.28400
C2154       C  0.71711093  0.70848672  0.59946200     0.44500
C2155       C  0.66070504  0.68915056  0.56894468     0.05700
O2156       O  0.68837430  0.71802546  0.52204569    -0.56900
H2157       H  0.72971070  0.73526774  0.53096158     0.18600
O2158       O  0.72601528  0.70504432  0.62517188    -0.63600
H2159       H  0.68471246  0.68806664  0.61584630     0.17100
C2160       C  0.64935474  0.66644694  0.56912444     0.29300
C2161       C  0.62677800  0.65491040  0.56894828    -0.24500
C2162       C  0.61489223  0.66560176  0.56865529    -0.23800
C2163       C  0.62635677  0.68845638  0.56733995     0.40800
C2164       C  0.64909075  0.70001588  0.56726961    -0.26300
O2165       O  0.66023541  0.65533893  0.56998249    -0.58200
H2166       H  0.61860019  0.63742951  0.56979283     0.16400
O2167       O  0.61562002  0.69969814  0.56637633    -0.59600
H2168       H  0.65767359  0.71752503  0.56684345     0.14900
H2169       H  0.72587104  0.69137708  0.62122344     0.46700
H2170       H  0.66319973  0.65380577  0.54826151     0.42100
H2171       H  0.61528718  0.70389606  0.58789254     0.45500
H2172       H  0.68609853  0.70632529  0.50778861     0.37000
C2173       C  0.66041693  0.51870072  0.12381919    -0.27200
C2174       C  0.67442721  0.52605590  0.09853970     0.02400
C2175       C  0.69690730  0.53831349  0.10390691     0.30500
C2176       C  0.70489225  0.54405715  0.13394276    -0.19000
C2177       C  0.69077332  0.53801386  0.15903652    -0.28400
C2178       C  0.66837082  0.52454274  0.15376692     0.44500
C2179       C  0.66525218  0.52361449  0.06707863     0.05700
O2180       O  0.71107110  0.54663347  0.07985930    -0.56900
H2181       H  0.72214012  0.55453189  0.13733623     0.18600
O2182       O  0.65397926  0.51773938  0.17757622    -0.63600
H2183       H  0.64309398  0.50913131  0.12020930     0.17100
C2184       C  0.67144102  0.51540181  0.04229303     0.29300
C2185       C  0.66378331  0.51538984  0.01254285    -0.24500
C2186       C  0.64980123  0.52338926  0.00700201    -0.23800
C2187       C  0.64281959  0.53056734  0.03219909     0.40800
C2188       C  0.65050135  0.53059904  0.06169156    -0.26300
O2189       O  0.68503566  0.50747248  0.04681613    -0.58200
H2190       H  0.66919686  0.50957286  0.99370378     0.16400
O2191       O  0.62818517  0.53732898  0.02841257    -0.59600
H2192       H  0.64531587  0.53674261  0.08041419     0.14900
H2193       H  0.65254890  0.50390306  0.18448584     0.46700
H2194       H  0.67545492  0.49205934  0.05241094     0.42100
H2195       H  0.63688101  0.55335018  0.02874004     0.45500
H2196       H  0.71903835  0.53871292  0.08001386     0.37000
C2197       C  0.62002586  0.49404874  0.32990470    -0.27200
C2198       C  0.62412820  0.48025156  0.34771188     0.02400
C2199       C  0.64555200  0.48548229  0.35307045     0.30500
C2200       C  0.66262414  0.50413919  0.33979062    -0.19000
C2201       C  0.65849358  0.51767355  0.32113336    -0.28400
C2202       C  0.63697217  0.51269086  0.31680802     0.44500
C2203       C  0.60554561  0.46032368  0.35981676     0.05700
O2204       O  0.64985658  0.47195143  0.36994958    -0.56900
H2205       H  0.67904749  0.50765671  0.34330365     0.18600
O2206       O  0.63228361  0.52587914  0.29973677    -0.63600
H2207       H  0.60353539  0.49025179  0.32604574     0.17100
C2208       C  0.59953319  0.45874851  0.39071018     0.29300
C2209       C  0.57925956  0.44196021  0.40014598    -0.24500
C2210       C  0.56469759  0.42677804  0.37888993    -0.23800
C2211       C  0.57171938  0.42736520  0.34852626     0.40800
C2212       C  0.59190796  0.44418546  0.33918997    -0.26300
O2213       O  0.61273960  0.47429767  0.41135677    -0.58200
H2214       H  0.57440135  0.44177455  0.42364939     0.16400
O2215       O  0.55854277  0.41235166  0.32726427    -0.59600
H2216       H  0.59651962  0.44524269  0.31536056     0.14900
H2217       H  0.63292456  0.53670123  0.31441005     0.46700
H2218       H  0.60864763  0.48555644  0.41014205     0.42100
H2219       H  0.56147028  0.40031839  0.32929987     0.45500
H2220       H  0.65296044  0.47803620  0.39095111     0.37000
C2221       C  0.75478040  0.63999514  0.41018206    -0.27200
C2222       C  0.77028397  0.66165236  0.40400017     0.02400
C2223       C  0.77741500  0.66789136  0.37376787     0.30500
C2224       C  0.76863634  0.65274587  0.35006781    -0.19000
C2225       C  0.75268830  0.63113211  0.35590086    -0.28400
C2226       C  0.74600493  0.62474167  0.38642848     0.44500
C2227       C  0.77863959  0.67783856  0.42899225     0.05700
O2228       O  0.79347309  0.68865475  0.36737512    -0.56900
H2229       H  0.77444074  0.65799566  0.32697199     0.18600
O2230       O  0.73024414  0.60394266  0.39316225    -0.63600
H2231       H  0.74915337  0.63501103  0.43341325     0.17100
C2232       C  0.77515228  0.69542925  0.42847245     0.29300
C2233       C  0.78348199  0.71085890  0.45186345    -0.24500
C2234       C  0.79530027  0.70906870  0.47631000    -0.23800
C2235       C  0.79868465  0.69128443  0.47682853     0.40800
C2236       C  0.79024959  0.67581784  0.45339009    -0.26300
O2237       O  0.76332494  0.69752033  0.40536260    -0.58200
H2238       H  0.78044532  0.72416112  0.45098137     0.16400
O2239       O  0.80939900  0.68829991  0.50071105    -0.59600
H2240       H  0.79287968  0.66224379  0.45417462     0.14900
H2241       H  0.73814409  0.59656994  0.39959157     0.46700
H2242       H  0.74803566  0.68864992  0.41188881     0.42100
H2243       H  0.82452665  0.69456321  0.49362969     0.45500
H2244       H  0.78619390  0.69543761  0.35666727     0.37000
C2245       C  0.67593043  0.64954576  0.23136033    -0.27200
C2246       C  0.65430801  0.63885402  0.24077931     0.02400
C2247       C  0.64437237  0.61725657  0.25072548     0.30500
C2248       C  0.65616859  0.60668335  0.25149668    -0.19000
C2249       C  0.67801435  0.61752170  0.24283642    -0.28400
C2250       C  0.68779971  0.63906127  0.23229135     0.44500
C2251       C  0.64227621  0.65042158  0.24033872     0.05700
O2252       O  0.62329603  0.60652811  0.26040361    -0.56900
H2253       H  0.64838449  0.59019080  0.25984149     0.18600
O2254       O  0.70894129  0.65005670  0.22290613    -0.63600
H2255       H  0.68361563  0.66608381  0.22321893     0.17100
C2256       C  0.64958691  0.66949794  0.25734445     0.29300
C2257       C  0.63790351  0.68018932  0.25668614    -0.24500
C2258       C  0.61891401  0.67209724  0.23914489    -0.23800
C2259       C  0.61176752  0.65311828  0.22182808     0.40800
C2260       C  0.62339315  0.64236293  0.22266206    -0.26300
O2261       O  0.66765781  0.67730988  0.27555272    -0.58200
H2262       H  0.64362243  0.69475847  0.27014348     0.16400
O2263       O  0.59378488  0.64524485  0.20344536    -0.59600
H2264       H  0.61784288  0.62785302  0.20912673     0.14900
H2265       H  0.70849068  0.64629011  0.20097904     0.46700
H2266       H  0.67926921  0.68967953  0.26406269     0.42100
H2267       H  0.59920990  0.65237620  0.18331514     0.45500
H2268       H  0.62394814  0.61036531  0.28234149     0.37000
C2269       C  0.82136351  0.52009695  0.32123665    -0.27200
C2270       C  0.82100472  0.53927469  0.32531740     0.02400
C2271       C  0.83785705  0.55649005  0.34164674     0.30500
C2272       C  0.85445605  0.55422376  0.35438176    -0.19000
C2273       C  0.85481179  0.53501838  0.35068087    -0.28400
C2274       C  0.83820474  0.51790788  0.33371591     0.44500
C2275       C  0.80253802  0.54107128  0.31412554     0.05700
O2276       O  0.83807073  0.57553451  0.34560826    -0.56900
H2277       H  0.86715880  0.56758378  0.36718900     0.18600
O2278       O  0.83753694  0.49856514  0.33094547    -0.63600
H2279       H  0.80828805  0.50663670  0.30908185     0.17100
C2280       C  0.79838716  0.54129912  0.28266752     0.29300
C2281       C  0.78226161  0.54552044  0.27286441    -0.24500
C2282       C  0.76994144  0.54934519  0.29419783    -0.23800
C2283       C  0.77357159  0.54800321  0.32584977     0.40800
C2284       C  0.78979671  0.54403082  0.33543614    -0.26300
O2285       O  0.81090640  0.53879311  0.26136801    -0.58200
H2286       H  0.77989657  0.54645829  0.24850344     0.16400
O2287       O  0.76208829  0.55149689  0.34779795    -0.59600
H2288       H  0.79280395  0.54374606  0.35974851     0.14900
H2289       H  0.84346765  0.49894560  0.31033777     0.46700
H2290       H  0.80280567  0.52322528  0.25603640     0.42100
H2291       H  0.74950579  0.53700995  0.35236896     0.45500
H2292       H  0.84523614  0.58423437  0.32708343     0.37000
C2293       C  0.19498387  0.70372074  0.16468585    -0.27200
C2294       C  0.18995191  0.71686020  0.18232960     0.02400
C2295       C  0.16814057  0.71052628  0.18683968     0.30500
C2296       C  0.15177021  0.69137432  0.17369492    -0.19000
C2297       C  0.15668072  0.67820774  0.15570315    -0.28400
C2298       C  0.17861310  0.68452111  0.15152343     0.44500
C2299       C  0.20755620  0.73790607  0.19398021     0.05700
O2300       O  0.16272752  0.72373245  0.20221373    -0.56900
H2301       H  0.13514467  0.68722283  0.17689920     0.18600
O2302       O  0.18433005  0.67237037  0.13412952    -0.63600
H2303       H  0.21173183  0.70850279  0.16085654     0.17100
C2304       C  0.20951233  0.74323547  0.22531166     0.29300
C2305       C  0.22537701  0.76387020  0.23518575    -0.24500
C2306       C  0.23958436  0.77950303  0.21417284    -0.23800
C2307       C  0.23803913  0.77375196  0.18290062     0.40800
C2308       C  0.22223063  0.75311782  0.17317047    -0.26300
O2309       O  0.19585460  0.72847847  0.24643389    -0.58200
H2310       H  0.22619356  0.76776717  0.25928538     0.16400
O2311       O  0.25192087  0.78809697  0.16154676    -0.59600
H2312       H  0.22104222  0.74918158  0.14902890     0.14900
H2313       H  0.18527939  0.66228576  0.14876620     0.46700
H2314       H  0.20225036  0.71941418  0.25136225     0.42100
H2315       H  0.24380638  0.79427946  0.15155967     0.45500
H2316       H  0.15609200  0.71611718  0.22168646     0.37000
C2317       C  0.00202812  0.56202151  0.29534230    -0.27200
C2318       C  0.99465576  0.55991888  0.26514316     0.02400
C2319       C  0.97241476  0.55097217  0.25944450     0.30500
C2320       C  0.95785839  0.54436552  0.28400233    -0.19000
C2321       C  0.96524696  0.54688288  0.31448539    -0.28400
C2322       C  0.98767348  0.55580238  0.31988626     0.44500
C2323       C  0.01062442  0.56768877  0.24004382     0.05700
O2324       O  0.96474700  0.54806664  0.22994793    -0.56900
H2325       H  0.94079819  0.53748466  0.27911677     0.18600
O2326       O  0.99584690  0.55830872  0.34903354    -0.63600
H2327       H  0.01913567  0.56890446  0.29995252     0.17100
C2328       C  0.01444973  0.58560616  0.22213688     0.29300
C2329       C  0.03063695  0.59365476  0.19986724    -0.24500
C2330       C  0.04312087  0.58395943  0.19491220    -0.23800
C2331       C  0.03931593  0.56603723  0.21288440     0.40800
C2332       C  0.02325750  0.55813224  0.23543656    -0.26300
O2333       O  0.00259647  0.59548856  0.22643689    -0.58200
H2334       H  0.03321323  0.60733857  0.18606927     0.16400
O2335       O  0.05136228  0.55633227  0.20887496    -0.59600
H2336       H  0.02065769  0.54452489  0.24943139     0.14900
H2337       H  0.00089481  0.57354504  0.35452402     0.46700
H2338       H  0.01041090  0.60644201  0.24265254     0.42100
H2339       H  0.06387284  0.56402075  0.22297101     0.45500
H2340       H  0.96106937  0.55948562  0.22653449     0.37000
C2341       C  0.88952261  0.80595847  0.05885248    -0.27200
C2342       C  0.88557651  0.80673319  0.02756460     0.02400
C2343       C  0.89851565  0.80411271  0.00596455     0.30500
C2344       C  0.91439904  0.79960626  0.01574419    -0.19000
C2345       C  0.91751981  0.79735052  0.04707543    -0.28400
C2346       C  0.90533492  0.80131786  0.06874986     0.44500
C2347       C  0.86643939  0.80778198  0.01752132     0.05700
O2348       O  0.89548424  0.80564016  0.97518602    -0.56900
H2349       H  0.92369648  0.79702787  0.99858302     0.18600
O2350       O  0.90762345  0.79927120  0.09958041    -0.63600
H2351       H  0.87956818  0.80787656  0.07565206     0.17100
C2352       C  0.84922874  0.78987279  0.00282057     0.29300
C2353       C  0.83171856  0.79116165  0.99157249    -0.24500
C2354       C  0.83071596  0.81003725  0.99526247    -0.23800
C2355       C  0.84745320  0.82767604  0.01126121     0.40800
C2356       C  0.86525749  0.82648249  0.02222927    -0.26300
O2357       O  0.84952582  0.77107758  0.99898050    -0.58200
H2358       H  0.81886770  0.77731940  0.97970555     0.16400
O2359       O  0.84726565  0.84655863  0.01449929    -0.59600
H2360       H  0.87839098  0.84032045  0.03368739     0.14900
H2361       H  0.91821041  0.81407171  0.10670248     0.46700
H2362       H  0.84369501  0.76290556  0.01831159     0.42100
H2363       H  0.84091444  0.84556925  0.03497999     0.45500
H2364       H  0.88810163  0.79059276  0.96741448     0.37000
C2365       C  0.08959918  0.88895031  0.97363684    -0.27200
C2366       C  0.08244153  0.86682498  0.97171772     0.02400
C2367       C  0.09562563  0.86007830  0.95786058     0.30500
C2368       C  0.11620229  0.87542178  0.94754912    -0.19000
C2369       C  0.12393655  0.89761434  0.95088846    -0.28400
C2370       C  0.11023914  0.90438230  0.96316302     0.44500
C2371       C  0.06271725  0.85098141  0.98796808     0.05700
O2372       O  0.08869483  0.83848855  0.95510549    -0.56900
H2373       H  0.12646017  0.86994672  0.93787324     0.18600
O2374       O  0.11756688  0.92590846  0.96762370    -0.63600
H2375       H  0.07963138  0.89425282  0.98472133     0.17100
C2376       C  0.06457114  0.84210161  0.01571826     0.29300
C2377       C  0.04609172  0.82631734  0.03057773    -0.24500
C2378       C  0.02537878  0.81904921  0.01825751    -0.23800
C2379       C  0.02353992  0.82836396  0.99060445     0.40800
C2380       C  0.04219879  0.84424767  0.97568387    -0.26300
O2381       O  0.08450074  0.84850316  0.02822307    -0.58200
H2382       H  0.04811404  0.81955346  0.05169519     0.16400
O2383       O  0.00372545  0.82192085  0.97769993    -0.59600
H2384       H  0.04068269  0.85108201  0.95429577     0.14900
H2385       H  0.11256384  0.93046646  0.94938709     0.46700
H2386       H  0.08788771  0.86113501  0.04122485     0.42100
H2387       H  0.99938436  0.83200013  0.98593568     0.45500
H2388       H  0.09550550  0.83514072  0.97243760     0.37000
C2389       C  0.81817023  0.64504829  0.16557455    -0.27200
C2390       C  0.82841860  0.66669892  0.17495099     0.02400
C2391       C  0.81789993  0.67316814  0.19576387     0.30500
C2392       C  0.79787183  0.65785327  0.20788234    -0.19000
C2393       C  0.78809813  0.63589023  0.19980825    -0.28400
C2394       C  0.79823257  0.62968862  0.17778727     0.44500
C2395       C  0.85022423  0.68218710  0.16319914     0.05700
O2396       O  0.82735095  0.69426422  0.20517572    -0.56900
H2397       H  0.79041075  0.66312544  0.22456585     0.18600
O2398       O  0.78911726  0.60861128  0.16847229    -0.63600
H2399       H  0.82578879  0.63996211  0.14887610     0.17100
C2400       C  0.86706116  0.67757558  0.16530159     0.29300
C2401       C  0.88721734  0.69172754  0.15242124    -0.24500
C2402       C  0.89098745  0.71070625  0.13773600    -0.23800
C2403       C  0.87433982  0.71566275  0.13644054     0.40800
C2404       C  0.85412029  0.70139219  0.14903219    -0.26300
O2405       O  0.86411240  0.65959587  0.18074469    -0.58200
H2406       H  0.89995328  0.68787470  0.15399338     0.16400
O2407       O  0.87741731  0.73404406  0.12207717    -0.59600
H2408       H  0.84128511  0.70507537  0.14704231     0.14900
H2409       H  0.77979722  0.60722684  0.15075804     0.46700
H2410       H  0.86350773  0.64955821  0.16470854     0.42100
H2411       H  0.87360817  0.72993233  0.10029410     0.45500
H2412       H  0.83663923  0.69546947  0.22283422     0.37000
C2413       C  0.00239746  0.68524913  0.10060062    -0.27200
C2414       C  0.02366919  0.69559190  0.08972332     0.02400
C2415       C  0.03367350  0.71728146  0.08032281     0.30500
C2416       C  0.02228284  0.72831477  0.08154280    -0.19000
C2417       C  0.00082749  0.71799522  0.09217257    -0.28400
C2418       C  0.99094435  0.69623353  0.10186213     0.44500
C2419       C  0.03536248  0.68363155  0.08877533     0.05700
O2420       O  0.05428182  0.72753485  0.06881339    -0.56900
H2421       H  0.03016886  0.74488907  0.07353345     0.18600
O2422       O  0.97034004  0.68570613  0.11336895    -0.63600
H2423       H  0.99468257  0.66860132  0.10827866     0.17100
C2424       C  0.05223610  0.68849604  0.10951847     0.29300
C2425       C  0.06243857  0.67632646  0.10938783    -0.24500
C2426       C  0.05606845  0.65911149  0.08868826    -0.23800
C2427       C  0.03946669  0.65465945  0.06732868     0.40800
C2428       C  0.02911501  0.66675655  0.06774607    -0.26300
O2429       O  0.05859946  0.70487590  0.13040118    -0.58200
H2430       H  0.07522739  0.68026172  0.12590354     0.16400
O2431       O  0.03259627  0.63802046  0.04679181    -0.59600
H2432       H  0.01607644  0.66289188  0.05170823     0.14900
H2433       H  0.96100097  0.67673244  0.09621924     0.46700
H2434       H  0.04929037  0.69805649  0.14854247     0.42100
H2435       H  0.04100737  0.64474496  0.02789219     0.45500
H2436       H  0.06370244  0.73634538  0.08597651     0.37000
C2437       C  0.86211906  0.53244274  0.54853459    -0.27200
C2438       C  0.86811972  0.52329146  0.57225611     0.02400
C2439       C  0.87597323  0.50944597  0.56487240     0.30500
C2440       C  0.87935212  0.50637989  0.53414574    -0.19000
C2441       C  0.87515766  0.51713014  0.51054683    -0.28400
C2442       C  0.86543981  0.52935735  0.51791887     0.44500
C2443       C  0.86740908  0.52959947  0.60435056     0.05700
O2444       O  0.88032413  0.49887806  0.58756345    -0.56900
H2445       H  0.88642497  0.49655224  0.52899273     0.18600
O2446       O  0.85996021  0.53914832  0.49547292    -0.63600
H2447       H  0.85572883  0.54285549  0.55379221     0.17100
C2448       C  0.88609485  0.53880841  0.62290004     0.29300
C2449       C  0.88555965  0.54607441  0.65233703    -0.24500
C2450       C  0.86673954  0.54501947  0.66368061    -0.23800
C2451       C  0.84806791  0.53595047  0.64492630     0.40800
C2452       C  0.84852631  0.52831663  0.61562440    -0.26300
O2453       O  0.90527589  0.54168394  0.61203689    -0.58200
H2454       H  0.90026180  0.55325520  0.66590416     0.16400
O2455       O  0.82942870  0.53493108  0.65455036    -0.59600
H2456       H  0.83412300  0.52161400  0.60144353     0.14900
H2457       H  0.84499705  0.52818909  0.48933562     0.46700
H2458       H  0.91201504  0.55560918  0.60075096     0.42100
H2459       H  0.82088154  0.52055670  0.66443459     0.45500
H2460       H  0.89609174  0.50443611  0.58647630     0.37000
C2461       C  0.76531679  0.53810966  0.83633092    -0.27200
C2462       C  0.75073899  0.53716754  0.81396211     0.02400
C2463       C  0.75701690  0.53999148  0.78297511     0.30500
C2464       C  0.77778719  0.54451608  0.77497314    -0.19000
C2465       C  0.79277099  0.54635968  0.79748652    -0.28400
C2466       C  0.78608852  0.54262168  0.82840592     0.44500
C2467       C  0.72972726  0.53471065  0.82356700     0.05700
O2468       O  0.74316050  0.53887270  0.76034273    -0.56900
H2469       H  0.78235864  0.54728410  0.75104955     0.18600
O2470       O  0.79976010  0.54359196  0.85122474    -0.63600
H2471       H  0.76092097  0.53619353  0.86031516     0.17100
C2472       C  0.71590277  0.51825052  0.84395493     0.29300
C2473       C  0.69733609  0.51765614  0.85516520    -0.24500
C2474       C  0.69213440  0.53338069  0.84650114    -0.23800
C2475       C  0.70551604  0.54926488  0.82487076     0.40800
C2476       C  0.72414148  0.54991102  0.81388673    -0.26300
O2477       O  0.72022312  0.50243070  0.85260262    -0.58200
H2478       H  0.68719181  0.50497601  0.87115389     0.16400
O2479       O  0.70110536  0.56479309  0.81508471    -0.59600
H2480       H  0.73464142  0.56281178  0.79840639     0.14900
H2481       H  0.80590295  0.55822520  0.86025929     0.46700
H2482       H  0.72464469  0.50534339  0.87443464     0.42100
H2483       H  0.69253310  0.55892016  0.79600568     0.45500
H2484       H  0.73409782  0.52328295  0.75543959     0.37000
C2485       C  0.85848727  0.66760904  0.69376491    -0.27200
C2486       C  0.83936797  0.65742961  0.67643237     0.02400
C2487       C  0.82806218  0.63483931  0.67335697     0.30500
C2488       C  0.83570837  0.62267579  0.68790760    -0.19000
C2489       C  0.85469380  0.63269410  0.70581738    -0.28400
C2490       C  0.86626777  0.65547576  0.70828212     0.44500
C2491       C  0.83163320  0.67051661  0.66082695     0.05700
O2492       O  0.80936175  0.62447069  0.65641779    -0.56900
H2493       H  0.82646591  0.60525842  0.68545587     0.18600
O2494       O  0.88492301  0.66608258  0.72525467    -0.63600
H2495       H  0.86749848  0.68505991  0.69585498     0.17100
C2496       C  0.82585531  0.68355373  0.67749061     0.29300
C2497       C  0.81913756  0.69627120  0.66197315    -0.24500
C2498       C  0.81866985  0.69654507  0.62983975    -0.23800
C2499       C  0.82398607  0.68304318  0.61328778     0.40800
C2500       C  0.83032680  0.67013493  0.62880591    -0.26300
O2501       O  0.82656514  0.68379551  0.70890246    -0.58200
H2502       H  0.81524631  0.70664252  0.67501357     0.16400
O2503       O  0.82351683  0.68271043  0.58185784    -0.59600
H2504       H  0.83473117  0.66014549  0.61576816     0.14900
H2505       H  0.89675810  0.66949967  0.71060401     0.46700
H2506       H  0.84042774  0.69693351  0.71435474     0.42100
H2507       H  0.80835910  0.67194881  0.57631768     0.45500
H2508       H  0.79768092  0.62208480  0.67075886     0.37000
C2509       C  0.90014654  0.66625681  0.88470390    -0.27200
C2510       C  0.90534613  0.66072652  0.91299439     0.02400
C2511       C  0.90268351  0.63997136  0.91668805     0.30500
C2512       C  0.89532377  0.62534785  0.89212391    -0.19000
C2513       C  0.89087040  0.63122946  0.86347332    -0.28400
C2514       C  0.89305679  0.65182623  0.86012658     0.44500
C2515       C  0.91339211  0.67676007  0.93835645     0.05700
O2516       O  0.90772778  0.63400148  0.94395594    -0.56900
H2517       H  0.89382884  0.60967094  0.89520834     0.18600
O2518       O  0.88836654  0.65812288  0.83284721    -0.63600
H2519       H  0.90152164  0.68188012  0.88162518     0.17100
C2520       C  0.93079621  0.69802255  0.93393010     0.29300
C2521       C  0.93787980  0.71298048  0.95802504    -0.24500
C2522       C  0.92795909  0.70707475  0.98686513    -0.23800
C2523       C  0.91037391  0.68586046  0.99113089     0.40800
C2524       C  0.90325364  0.67096499  0.96703205    -0.26300
O2525       O  0.94168716  0.70398010  0.90660334    -0.58200
H2526       H  0.95159127  0.72906695  0.95435389     0.16400
O2527       O  0.89992371  0.67948912  0.01874299    -0.59600
H2528       H  0.88959050  0.65484942  0.97069518     0.14900
H2529       H  0.87276941  0.65334120  0.83397766     0.46700
H2530       H  0.93755361  0.71384058  0.89675281     0.42100
H2531       H  0.88856880  0.68345241  0.01777360     0.45500
H2532       H  0.92341751  0.63922295  0.94276040     0.37000
C2533       C  0.00158242  0.79094256  0.29682812    -0.27200
C2534       C  0.01186357  0.80907264  0.27769241     0.02400
C2535       C  0.02862648  0.82866154  0.28964453     0.30500
C2536       C  0.03537089  0.82971117  0.32018775    -0.19000
C2537       C  0.02559336  0.81132239  0.33921943    -0.28400
C2538       C  0.00822638  0.79188742  0.32725354     0.44500
C2539       C  0.00560717  0.80671172  0.24489935     0.05700
O2540       O  0.03825952  0.84689604  0.27174285    -0.56900
H2541       H  0.04848745  0.84488490  0.32882645     0.18600
O2542       O  0.99838218  0.77330632  0.34443464    -0.63600
H2543       H  0.98873536  0.77572920  0.28781259     0.17100
C2544       C  0.01970174  0.80733143  0.22213608     0.29300
C2545       C  0.01262330  0.80239974  0.19168350    -0.24500
C2546       C  0.99136965  0.79655324  0.18329869    -0.23800
C2547       C  0.97746408  0.79653704  0.20619397     0.40800
C2548       C  0.98463661  0.80153646  0.23661666    -0.26300
O2549       O  0.04015579  0.81185259  0.22964997    -0.58200
H2550       H  0.02365835  0.80249727  0.17477636     0.16400
O2551       O  0.95660746  0.79103531  0.19942665    -0.59600
H2552       H  0.97357359  0.80080820  0.25401139     0.14900
H2553       H  0.98524752  0.77259694  0.35290003     0.46700
H2554       H  0.03855170  0.79773986  0.23543460     0.42100
H2555       H  0.94775912  0.77530758  0.20363586     0.45500
H2556       H  0.05228979  0.84858590  0.26546349     0.37000
C2557       C  0.11880122  0.91600627  0.51297843    -0.27200
C2558       C  0.13068465  0.93140017  0.49036076     0.02400
C2559       C  0.12629769  0.92543483  0.45932071     0.30500
C2560       C  0.11123978  0.90405650  0.45134111    -0.19000
C2561       C  0.10018126  0.88823854  0.47399068    -0.28400
C2562       C  0.10356412  0.89467895  0.50509440     0.44500
C2563       C  0.14912063  0.95278057  0.49952260     0.05700
O2564       O  0.13721078  0.94022785  0.43659435    -0.56900
H2565       H  0.10882022  0.89974396  0.42730227     0.18600
O2566       O  0.09285726  0.88012845  0.52817181    -0.63600
H2567       H  0.12204041  0.92025887  0.53698908     0.17100
C2568       C  0.14660205  0.96606806  0.52065994     0.29300
C2569       C  0.16478017  0.98499785  0.53139447    -0.24500
C2570       C  0.18576573  0.99090097  0.52170084    -0.23800
C2571       C  0.18808139  0.97786109  0.49965224     0.40800
C2572       C  0.16988428  0.95909328  0.48878467    -0.26300
O2573       O  0.12640511  0.96080927  0.53061028    -0.58200
H2574       H  0.16239694  0.99479374  0.54793096     0.16400
O2575       O  0.20804382  0.98298439  0.48888495    -0.59600
H2576       H  0.17212860  0.94894720  0.47271000     0.14900
H2577       H  0.07948008  0.88064391  0.53148499     0.46700
H2578       H  0.12553504  0.95586346  0.55207183     0.42100
H2579       H  0.21258151  0.97457258  0.50179530     0.45500
H2580       H  0.12879095  0.94749333  0.43287921     0.37000
C2581       C  0.97562517  0.80938215  0.54555227    -0.27200
C2582       C  0.95837240  0.80670485  0.52717075     0.02400
C2583       C  0.95921297  0.80455068  0.49531682     0.30500
C2584       C  0.97687732  0.80445943  0.48226575    -0.19000
C2585       C  0.99396973  0.80650681  0.50061252    -0.28400
C2586       C  0.99348085  0.80953878  0.53249111     0.44500
C2587       C  0.93808933  0.80265251  0.54145741     0.05700
O2588       O  0.94240508  0.80164482  0.47689103    -0.56900
H2589       H  0.97700178  0.80242896  0.45769870     0.18600
O2590       O  0.00967438  0.81135979  0.55131927    -0.63600
H2591       H  0.97490070  0.81065613  0.57019319     0.17100
C2592       C  0.92462227  0.78259025  0.55548699     0.29300
C2593       C  0.90376054  0.77694074  0.56419236    -0.24500
C2594       C  0.89603325  0.79119220  0.55953326    -0.23800
C2595       C  0.90999505  0.81189761  0.54734825     0.40800
C2596       C  0.93087430  0.81742084  0.53796170    -0.26300
O2597       O  0.93108268  0.76767768  0.55840394    -0.58200
H2598       H  0.89324445  0.76095737  0.57359943     0.16400
O2599       O  0.90281348  0.82603498  0.54208621    -0.59600
H2600       H  0.94113076  0.83285988  0.52691982     0.14900
H2601       H  0.01944669  0.82711742  0.55431322     0.46700
H2602       H  0.93762266  0.77009409  0.57913079     0.42100
H2603       H  0.90712963  0.83533430  0.56054899     0.45500
H2604       H  0.93231369  0.78579070  0.47631301     0.37000
C2605       C  0.14572279  0.81059608  0.35509120    -0.27200
C2606       C  0.16343561  0.83181615  0.35490659     0.02400
C2607       C  0.16156059  0.84830316  0.36935320     0.30500
C2608       C  0.14209766  0.84352866  0.38311310    -0.19000
C2609       C  0.12450229  0.82227691  0.38358123    -0.28400
C2610       C  0.12645661  0.80571458  0.36958308     0.44500
C2611       C  0.18365421  0.83668040  0.33919818     0.05700
O2612       O  0.17876725  0.86907497  0.37058400    -0.56900
H2613       H  0.14096537  0.85637757  0.39423385     0.18600
O2614       O  0.10957792  0.78474484  0.36965678    -0.63600
H2615       H  0.14673330  0.79777769  0.34368561     0.17100
C2616       C  0.19374122  0.82461184  0.34530178     0.29300
C2617       C  0.21287070  0.82962812  0.33020887    -0.24500
C2618       C  0.22224458  0.84656736  0.30873889    -0.23800
C2619       C  0.21195223  0.85850881  0.30247281     0.40800
C2620       C  0.19287531  0.85350853  0.31765996    -0.26300
O2621       O  0.18550277  0.80846437  0.36689973    -0.58200
H2622       H  0.22041752  0.82022217  0.33552038     0.16400
O2623       O  0.22022460  0.87500612  0.28143638    -0.59600
H2624       H  0.18508721  0.86268249  0.31227801     0.14900
H2625       H  0.10085695  0.78349085  0.35125784     0.46700
H2626       H  0.17934501  0.79478168  0.35518255     0.42100
H2627       H  0.21292880  0.86821720  0.26183458     0.45500
H2628       H  0.18732529  0.86941698  0.38868922     0.37000
C2629       C  0.01428370  0.68963899  0.43619567    -0.27200
C2630       C  0.99252899  0.67844582  0.42712183     0.02400
C2631       C  0.98235514  0.69020222  0.41936589     0.30500
C2632       C  0.99384000  0.71277985  0.42123476    -0.19000
C2633       C  0.01566942  0.72406574  0.43031579    -0.28400
C2634       C  0.02591990  0.71220303  0.43753814     0.44500
C2635       C  0.98054031  0.65451523  0.42640675     0.05700
O2636       O  0.96119989  0.67978160  0.40983139    -0.56900
H2637       H  0.98564102  0.72146849  0.41531567     0.18600
O2638       O  0.04705609  0.72236786  0.44714532    -0.63600
H2639       H  0.02224474  0.68082818  0.44274697     0.17100
C2640       C  0.98859396  0.64319164  0.41021081     0.29300
C2641       C  0.97700223  0.62059187  0.40992429    -0.24500
C2642       C  0.95727870  0.60893755  0.42553255    -0.23800
C2643       C  0.94937539  0.62027409  0.44208020     0.40800
C2644       C  0.96101375  0.64287469  0.44246227    -0.26300
O2645       O  0.00719184  0.65409260  0.39331162    -0.58200
H2646       H  0.98319418  0.61218242  0.39669985     0.16400
O2647       O  0.93035353  0.60946581  0.45803082    -0.59600
H2648       H  0.95482652  0.65135848  0.45550861     0.14900
H2649       H  0.05551152  0.72349507  0.42862531     0.46700
H2650       H  0.01820575  0.65241473  0.40475260     0.42100
H2651       H  0.93441726  0.60648549  0.47843738     0.45500
H2652       H  0.96171492  0.67776554  0.38745584     0.37000
C2653       C  0.16930962  0.68539237  0.89645102    -0.27200
C2654       C  0.15118461  0.66516297  0.90310870     0.02400
C2655       C  0.13768323  0.65249309  0.87893535     0.30500
C2656       C  0.14123699  0.66078677  0.84919625    -0.19000
C2657       C  0.15826803  0.68180614  0.84270052    -0.28400
C2658       C  0.17294142  0.69377557  0.86651012     0.44500
C2659       C  0.14434957  0.65861179  0.93528353     0.05700
O2660       O  0.12009258  0.63242301  0.88450608    -0.56900
H2661       H  0.12990318  0.65099890  0.83143765     0.18600
O2662       O  0.19029800  0.71402934  0.86120136    -0.63600
H2663       H  0.17988470  0.69531345  0.91479197     0.17100
C2664       C  0.15731256  0.65590720  0.95709011     0.29300
C2665       C  0.14927864  0.64842624  0.98674548    -0.24500
C2666       C  0.12844945  0.64388555  0.99513414    -0.23800
C2667       C  0.11604636  0.64767898  0.97335335     0.40800
C2668       C  0.12399307  0.65483137  0.94397893    -0.26300
O2669       O  0.17735536  0.65954829  0.94922934    -0.58200
H2670       H  0.15921584  0.64583721  0.00295839     0.16400
O2671       O  0.09586637  0.64413654  0.98015620    -0.59600
H2672       H  0.11404098  0.65736160  0.92768158     0.14900
H2673       H  0.18538097  0.72417097  0.86704663     0.46700
H2674       H  0.18772011  0.67410740  0.95737812     0.42100
H2675       H  0.09834622  0.65812662  0.98818877     0.45500
H2676       H  0.12583050  0.62244754  0.88475542     0.37000
C2677       C  0.31080863  0.82213699  0.68701414    -0.27200
C2678       C  0.29027179  0.81914593  0.68103701     0.02400
C2679       C  0.28840069  0.83551399  0.66615749     0.30500
C2680       C  0.30697145  0.85419265  0.65610971    -0.19000
C2681       C  0.32754714  0.85685149  0.66081886    -0.28400
C2682       C  0.32941903  0.84081284  0.67689173     0.44500
C2683       C  0.27080201  0.79891397  0.69042360     0.05700
O2684       O  0.26850531  0.83352144  0.66198065    -0.56900
H2685       H  0.30525663  0.86649113  0.64413864     0.18600
O2686       O  0.34922621  0.84274812  0.68159610    -0.63600
H2687       H  0.31235237  0.80965979  0.69873958     0.17100
C2688       C  0.25637406  0.78441980  0.66847793     0.29300
C2689       C  0.23700816  0.76628943  0.67788716    -0.24500
C2690       C  0.23162695  0.76252216  0.70912456    -0.23800
C2691       C  0.24670140  0.77669301  0.73108249     0.40800
C2692       C  0.26616812  0.79458497  0.72158868    -0.26300
O2693       O  0.26115945  0.78788581  0.63783833    -0.58200
H2694       H  0.22582395  0.75563467  0.66059366     0.16400
O2695       O  0.24217053  0.77395218  0.76181764    -0.59600
H2696       H  0.27726027  0.80568398  0.73860315     0.14900
H2697       H  0.35165731  0.83608350  0.66334942     0.46700
H2698       H  0.25112308  0.79223833  0.62919643     0.42100
H2699       H  0.23535892  0.78268877  0.76626972     0.45500
H2700       H  0.26561755  0.83144855  0.63963170     0.37000
C2701       C  0.03851427  0.68380584  0.75322944    -0.27200
C2702       C  0.02571344  0.66185537  0.76071407     0.02400
C2703       C  0.03584115  0.65019514  0.76938594     0.30500
C2704       C  0.05839630  0.66031002  0.76945727    -0.19000
C2705       C  0.07125966  0.68219802  0.76140585    -0.28400
C2706       C  0.06106408  0.69400929  0.75354211     0.44500
C2707       C  0.00186298  0.65100857  0.75815346     0.05700
O2708       O  0.02382190  0.62881209  0.77752073    -0.56900
H2709       H  0.06582792  0.65093157  0.77563755     0.18600
O2710       O  0.07288939  0.71533885  0.74503172    -0.63600
H2711       H  0.03100826  0.69293537  0.74609616     0.17100
C2712       C  0.99019141  0.65925486  0.77295936     0.29300
C2713       C  0.96757957  0.64812110  0.77103351    -0.24500
C2714       C  0.95631732  0.62871757  0.75449501    -0.23800
C2715       C  0.96810397  0.62098609  0.73870386     0.40800
C2716       C  0.99064808  0.63212355  0.74058151    -0.26300
O2717       O  0.00064345  0.67742070  0.79085889    -0.58200
H2718       H  0.95881717  0.65425774  0.78350260     0.16400
O2719       O  0.95776762  0.60244261  0.72157154    -0.59600
H2720       H  0.99943265  0.62590577  0.72835727     0.14900
H2721       H  0.07456916  0.71516073  0.72251038     0.46700
H2722       H  0.00019828  0.68898358  0.77896633     0.42100
H2723       H  0.95555464  0.60711577  0.70115040     0.45500
H2724       H  0.02039461  0.62885534  0.79948540     0.37000
C2725       C  0.11849795  0.77344391  0.63599939    -0.27200
C2726       C  0.11298221  0.76353360  0.60720421     0.02400
C2727       C  0.11630133  0.74616339  0.60115625     0.30500
C2728       C  0.12498597  0.73893075  0.62385939    -0.19000
C2729       C  0.13014650  0.74861640  0.65290513    -0.28400
C2730       C  0.12701378  0.76616935  0.65873838     0.44500
C2731       C  0.10461444  0.77203903  0.58328518     0.05700
O2732       O  0.11085172  0.73598344  0.57326334    -0.56900
H2733       H  0.12713094  0.72535792  0.61899985     0.18600
O2734       O  0.13234521  0.77647216  0.68655287    -0.63600
H2735       H  0.11648955  0.78711370  0.64074805     0.17100
C2736       C  0.08632346  0.77401876  0.58837649     0.29300
C2737       C  0.07877007  0.78205566  0.56511326    -0.24500
C2738       C  0.08924405  0.78809122  0.53667568    -0.23800
C2739       C  0.10790451  0.78666114  0.53204242     0.40800
C2740       C  0.11540800  0.77868459  0.55520892    -0.26300
O2741       O  0.07508279  0.76702994  0.61534382    -0.58200
H2742       H  0.06428114  0.78282708  0.56892722     0.16400
O2743       O  0.11891550  0.79294134  0.50483856    -0.59600
H2744       H  0.12978209  0.77772512  0.55125428     0.14900
H2745       H  0.14780738  0.78783818  0.68480944     0.46700
H2746       H  0.07887505  0.78035748  0.62691058     0.42100
H2747       H  0.12925442  0.80866602  0.50706358     0.45500
H2748       H  0.09526099  0.72497906  0.57482268     0.37000
C2749       C  0.18880103  0.84597543  0.87463557    -0.27200
C2750       C  0.19843303  0.84835693  0.84604940     0.02400
C2751       C  0.21152275  0.86915300  0.83374974     0.30500
C2752       C  0.21456823  0.88732146  0.84996115    -0.19000
C2753       C  0.20449773  0.88502178  0.87845409    -0.28400
C2754       C  0.19155009  0.86396059  0.89074104     0.44500
C2755       C  0.19333846  0.82874816  0.82868177     0.05700
O2756       O  0.22106992  0.87182684  0.80569227    -0.56900
H2757       H  0.22449138  0.90318310  0.83988963     0.18600
O2758       O  0.18128457  0.86060436  0.91836775    -0.63600
H2759       H  0.17853882  0.82996908  0.88413989     0.17100
C2760       C  0.20074690  0.81500602  0.83868103     0.29300
C2761       C  0.19360790  0.79518533  0.82401395    -0.24500
C2762       C  0.17861425  0.78856955  0.79977895    -0.23800
C2763       C  0.17175817  0.80277933  0.78924268     0.40800
C2764       C  0.17912167  0.82265621  0.80372601    -0.26300
O2765       O  0.21497614  0.82086748  0.86276090    -0.58200
H2766       H  0.19936290  0.78473220  0.83219207     0.16400
O2767       O  0.15772737  0.79738719  0.76497600    -0.59600
H2768       H  0.17324529  0.83311243  0.79599501     0.14900
H2769       H  0.16643593  0.85729519  0.91322461     0.46700
H2770       H  0.20587904  0.81382180  0.88100353     0.42100
H2771       H  0.16702223  0.80244981  0.74651437     0.45500
H2772       H  0.23526518  0.87317674  0.81008931     0.37000
C2773       C  0.25585660  0.46829619  0.16366544    -0.27200
C2774       C  0.26878951  0.46387477  0.18304932     0.02400
C2775       C  0.26191846  0.45696832  0.21325074     0.30500
C2776       C  0.24186771  0.45348484  0.22317959    -0.19000
C2777       C  0.22818012  0.45646712  0.20320190    -0.28400
C2778       C  0.23570794  0.46465376  0.17347279     0.44500
C2779       C  0.28889817  0.46552005  0.17113844     0.05700
O2780       O  0.27481851  0.45372231  0.23325072    -0.56900
H2781       H  0.23664647  0.44747155  0.24620927     0.18600
O2782       O  0.22329619  0.46858034  0.15347105    -0.63600
H2783       H  0.26106755  0.47387373  0.14046659     0.17100
C2784       C  0.29137467  0.44728595  0.17070403     0.29300
C2785       C  0.31043042  0.44902059  0.15955791    -0.24500
C2786       C  0.32710520  0.46867360  0.14776269    -0.23800
C2787       C  0.32443571  0.48686509  0.14768193     0.40800
C2788       C  0.30549120  0.48519743  0.15943410    -0.26300
O2789       O  0.27500663  0.42751728  0.18041894    -0.58200
H2790       H  0.31185081  0.43471058  0.15926204     0.16400
O2791       O  0.34046981  0.50650021  0.13700735    -0.59600
H2792       H  0.30377132  0.49933560  0.15949975     0.14900
H2793       H  0.22690977  0.48358932  0.15785735     0.46700
H2794       H  0.26543235  0.42110698  0.16235822     0.42100
H2795       H  0.33598361  0.50766768  0.11589481     0.45500
H2796       H  0.26734660  0.43787430  0.23660863     0.37000
C2797       C  0.12068331  0.52926511  0.11952485    -0.27200
C2798       C  0.13987858  0.53633063  0.13598723     0.02400
C2799       C  0.15355322  0.55857078  0.14171254     0.30500
C2800       C  0.14738101  0.57336841  0.13212390    -0.19000
C2801       C  0.12733619  0.56601813  0.11765260    -0.28400
C2802       C  0.11424444  0.54385606  0.11066881     0.44500
C2803       C  0.14370345  0.51992335  0.15037344     0.05700
O2804       O  0.17271267  0.56585398  0.15713617    -0.56900
H2805       H  0.15762920  0.59034683  0.13757811     0.18600
O2806       O  0.09497307  0.53629330  0.09538189    -0.63600
H2807       H  0.11006399  0.51218779  0.11498680     0.17100
C2808       C  0.14005617  0.51570344  0.18189367     0.29300
C2809       C  0.14108332  0.49848167  0.19501090    -0.24500
C2810       C  0.14554907  0.48498427  0.17707377    -0.23800
C2811       C  0.14933066  0.48934871  0.14539301     0.40800
C2812       C  0.14831118  0.50668402  0.13228778    -0.26300
O2813       O  0.13479760  0.52794886  0.19993133    -0.58200
H2814       H  0.13808823  0.49555952  0.21934972     0.16400
O2815       O  0.15352541  0.47654684  0.12687035    -0.59600
H2816       H  0.15067402  0.50954188  0.10784520     0.14900
H2817       H  0.08364574  0.52970806  0.11137658     0.46700
H2818       H  0.11887044  0.52108956  0.19817181     0.42100
H2819       H  0.13916104  0.46497341  0.11956996     0.45500
H2820       H  0.16964232  0.56775403  0.17864699     0.37000
C2821       C  0.17736045  0.35868465  0.33610243    -0.27200
C2822       C  0.17179618  0.33899183  0.32196492     0.02400
C2823       C  0.16046416  0.33368923  0.29389641     0.30500
C2824       C  0.15510470  0.34804803  0.28029680    -0.19000
C2825       C  0.16122802  0.36803703  0.29398028    -0.28400
C2826       C  0.17235301  0.37323530  0.32224193     0.44500
C2827       C  0.17765365  0.32401702  0.33685284     0.05700
O2828       O  0.15488753  0.31467791  0.27926909    -0.56900
H2829       H  0.14667538  0.34378470  0.25848866     0.18600
O2830       O  0.17771907  0.39213623  0.33704933    -0.63600
H2831       H  0.18554665  0.36277221  0.35808689     0.17100
C2832       C  0.19911245  0.33105510  0.34576316     0.29300
C2833       C  0.20415576  0.31672983  0.36035019    -0.24500
C2834       C  0.18802900  0.29523592  0.36642108    -0.23800
C2835       C  0.16652546  0.28822716  0.35727990     0.40800
C2836       C  0.16156087  0.30254424  0.34262506    -0.26300
O2837       O  0.21538476  0.35170361  0.33932262    -0.58200
H2838       H  0.22078449  0.32251558  0.36691049     0.16400
O2839       O  0.15008299  0.26752557  0.36295381    -0.59600
H2840       H  0.14492979  0.29693287  0.33625663     0.14900
H2841       H  0.19325520  0.40205418  0.33256454     0.46700
H2842       H  0.21906496  0.35946559  0.35918609     0.42100
H2843       H  0.14431538  0.26813750  0.38328058     0.45500
H2844       H  0.16765829  0.31786963  0.26674007     0.37000
C2845       C  0.13493586  0.20591702  0.95365781    -0.27200
C2846       C  0.13291402  0.19749048  0.98333674     0.02400
C2847       C  0.11457734  0.19294384  0.00074598     0.30500
C2848       C  0.09929111  0.19782467  0.98909501    -0.19000
C2849       C  0.10169709  0.20701366  0.95981404    -0.28400
C2850       C  0.11959348  0.21068637  0.94188239     0.44500
C2851       C  0.15092844  0.19545344  0.99690801     0.05700
O2852       O  0.11170390  0.18418914  0.02952835    -0.56900
H2853       H  0.08567611  0.19474447  0.00328043     0.18600
O2854       O  0.12292738  0.21999935  0.91342584    -0.63600
H2855       H  0.14903430  0.20981487  0.94004934     0.17100
C2856       C  0.15922229  0.18372737  0.98234502     0.29300
C2857       C  0.17701781  0.18319800  0.99502315    -0.24500
C2858       C  0.18701643  0.19440006  0.02223883    -0.23800
C2859       C  0.17835410  0.20587879  0.03694917     0.40800
C2860       C  0.16066158  0.20638111  0.02421368    -0.26300
O2861       O  0.14959649  0.17216763  0.95623927    -0.58200
H2862       H  0.18297592  0.17396002  0.98343400     0.16400
O2863       O  0.18731439  0.21719011  0.06345949    -0.59600
H2864       H  0.15473187  0.21574274  0.03554838     0.14900
H2865       H  0.13174742  0.23580880  0.91709061     0.46700
H2866       H  0.15941942  0.18070650  0.93929691     0.42100
H2867       H  0.17858584  0.20725445  0.08023937     0.45500
H2868       H  0.10405312  0.16833670  0.02629300     0.37000
C2869       C  0.92772055  0.12316769  0.05522429    -0.27200
C2870       C  0.93121681  0.13175229  0.02544938     0.02400
C2871       C  0.91341822  0.12487906  0.00552030     0.30500
C2872       C  0.89268281  0.10956881  0.01519477    -0.19000
C2873       C  0.88898043  0.10102390  0.04501503    -0.28400
C2874       C  0.90680349  0.10791835  0.06509813     0.44500
C2875       C  0.95327837  0.14778134  0.01474848     0.05700
O2876       O  0.91605306  0.13334857  0.97656411    -0.56900
H2877       H  0.87934120  0.10483197  0.99937797     0.18600
O2878       O  0.90403721  0.09993678  0.09435908    -0.63600
H2879       H  0.94124978  0.12814499  0.07075783     0.17100
C2880       C  0.96622391  0.16752714  0.03018377     0.29300
C2881       C  0.98551837  0.18363934  0.01679447    -0.24500
C2882       C  0.99189941  0.18031029  0.98797228    -0.23800
C2883       C  0.97957972  0.16016025  0.97348435     0.40800
C2884       C  0.96060109  0.14404227  0.98699871    -0.26300
O2885       O  0.95930895  0.17187357  0.05700199    -0.58200
H2886       H  0.99482814  0.19914103  0.02809029     0.16400
O2887       O  0.98560144  0.15631359  0.94553328    -0.59600
H2888       H  0.95107087  0.12880240  0.97512976     0.14900
H2889       H  0.90531306  0.08686350  0.09272917     0.46700
H2890       H  0.96765751  0.16975231  0.07339362     0.42100
H2891       H  0.99624665  0.15177749  0.95021876     0.45500
H2892       H  0.91567952  0.14687347  0.97907600     0.37000
C2893       C  0.09685064  0.30507098  0.06958473    -0.27200
C2894       C  0.10304004  0.32666402  0.06335215     0.02400
C2895       C  0.10175554  0.33260281  0.03299312     0.30500
C2896       C  0.09401380  0.31705543  0.00965977    -0.19000
C2897       C  0.08723160  0.29524063  0.01588741    -0.28400
C2898       C  0.08895313  0.28943306  0.04631214     0.44500
C2899       C  0.11032626  0.34268725  0.08878123     0.05700
O2900       O  0.10761612  0.35350318  0.02593103    -0.56900
H2901       H  0.09300456  0.32213594  0.98661714     0.18600
O2902       O  0.08324306  0.26861620  0.05363848    -0.63600
H2903       H  0.09810902  0.30027046  0.09270750     0.17100
C2904       C  0.09725912  0.33873444  0.11473956     0.29300
C2905       C  0.10451161  0.35363223  0.13887998    -0.24500
C2906       C  0.12478023  0.37277947  0.13775792    -0.23800
C2907       C  0.13770391  0.37696134  0.11148971     0.40800
C2908       C  0.13045099  0.36198457  0.08731840    -0.26300
O2909       O  0.07699122  0.32071450  0.11617864    -0.58200
H2910       H  0.09411507  0.35019846  0.15856034     0.16400
O2911       O  0.15764395  0.39534645  0.10945484    -0.59600
H2912       H  0.14076685  0.36526970  0.06758934     0.14900
H2913       H  0.06818012  0.26180527  0.06122407     0.46700
H2914       H  0.07826139  0.31086110  0.13092275     0.42100
H2915       H  0.16787874  0.39142528  0.11855077     0.45500
H2916       H  0.09441921  0.35435007  0.02926040     0.37000
C2917       C  0.19979890  0.34288130  0.83199809    -0.27200
C2918       C  0.18075665  0.33231879  0.81463456     0.02400
C2919       C  0.18136689  0.33609969  0.78300217     0.30500
C2920       C  0.20083624  0.35109501  0.76921012    -0.19000
C2921       C  0.21995437  0.36220547  0.78660417    -0.28400
C2922       C  0.21937600  0.35768544  0.81821384     0.44500
C2923       C  0.16012834  0.31816057  0.83004756     0.05700
O2924       O  0.16282766  0.32594274  0.76570344    -0.56900
H2925       H  0.20091165  0.35419464  0.74488388     0.18600
O2926       O  0.23763778  0.36807476  0.83604895    -0.63600
H2927       H  0.19937573  0.33990542  0.85641692     0.17100
C2928       C  0.15009712  0.29562190  0.82782109     0.29300
C2929       C  0.13065992  0.28250288  0.84310134    -0.24500
C2930       C  0.12099771  0.29159742  0.86095925    -0.23800
C2931       C  0.13111719  0.31434165  0.86277308     0.40800
C2932       C  0.15054540  0.32739852  0.84735095    -0.26300
O2933       O  0.15926463  0.28629745  0.81095385    -0.58200
H2934       H  0.12331308  0.26512976  0.84121520     0.16400
O2935       O  0.12231884  0.32404102  0.87959834    -0.59600
H2936       H  0.15824587  0.34482605  0.84900457     0.14900
H2937       H  0.23802135  0.38128212  0.84354934     0.46700
H2938       H  0.16896654  0.28454882  0.82541890     0.42100
H2939       H  0.12935893  0.32673395  0.90001448     0.45500
H2940       H  0.16233099  0.31284556  0.75749289     0.37000
C2941       C  0.15889566  0.49134957  0.44998399    -0.27200
C2942       C  0.14424567  0.47735848  0.42782972     0.02400
C2943       C  0.12227530  0.46465546  0.43547689     0.30500
C2944       C  0.11520371  0.46577183  0.46481847    -0.19000
C2945       C  0.12966428  0.47966373  0.48736073    -0.28400
C2946       C  0.15174391  0.49276853  0.47945503     0.44500
C2947       C  0.15155719  0.47526472  0.39688209     0.05700
O2948       O  0.10766431  0.45032829  0.41469056    -0.56900
H2949       H  0.09817936  0.45546083  0.46987494     0.18600
O2950       O  0.16656166  0.50661869  0.50040896    -0.63600
H2951       H  0.17588664  0.50121724  0.44438948     0.17100
C2952       C  0.14465212  0.48154223  0.37061616     0.29300
C2953       C  0.14743165  0.47521689  0.34147025    -0.24500
C2954       C  0.15735459  0.46277967  0.33776990    -0.23800
C2955       C  0.16563728  0.45781343  0.36401018     0.40800
C2956       C  0.16272975  0.46409094  0.39324836    -0.26300
O2957       O  0.13409523  0.49287697  0.37334090    -0.58200
H2958       H  0.14111219  0.47944641  0.32173641     0.16400
O2959       O  0.17534745  0.44565215  0.36163511    -0.59600
H2960       H  0.16804996  0.45906767  0.41326993     0.14900
H2961       H  0.16760548  0.52074075  0.49662870     0.46700
H2962       H  0.14570631  0.50827051  0.37436025     0.42100
H2963       H  0.16344340  0.43042449  0.36359040     0.45500
H2964       H  0.10026970  0.45765086  0.40597281     0.37000
C2965       C  0.13878093  0.61571088  0.67803235    -0.27200
C2966       C  0.14061408  0.61659673  0.64606132     0.02400
C2967       C  0.14370860  0.63507092  0.63034908     0.30500
C2968       C  0.14533901  0.65257548  0.64677625    -0.19000
C2969       C  0.14347542  0.65174044  0.67891195    -0.28400
C2970       C  0.14009745  0.63299980  0.69446444     0.44500
C2971       C  0.13780833  0.59741357  0.62960495     0.05700
O2972       O  0.14488632  0.63604337  0.59898674    -0.56900
H2973       H  0.14772579  0.66669114  0.63430243     0.18600
O2974       O  0.13808137  0.63135482  0.72573272    -0.63600
H2975       H  0.13600335  0.60136838  0.69028148     0.17100
C2976       C  0.15291509  0.59054086  0.63292843     0.29300
C2977       C  0.14802476  0.57021333  0.62189447    -0.24500
C2978       C  0.12786197  0.55640633  0.60833912    -0.23800
C2979       C  0.11333451  0.56391469  0.60341604     0.40800
C2980       C  0.11848075  0.58438937  0.61373799    -0.26300
O2981       O  0.17219297  0.60334998  0.64772712    -0.58200
H2982       H  0.15930802  0.56465469  0.62592251     0.16400
O2983       O  0.09379670  0.55106029  0.58918383    -0.59600
H2984       H  0.10677041  0.58955412  0.61100696     0.14900
H2985       H  0.15304875  0.63752039  0.73366760     0.46700
H2986       H  0.16976260  0.59804600  0.66917802     0.42100
H2987       H  0.08295612  0.54527394  0.60587254     0.45500
H2988       H  0.16024544  0.64122821  0.59420437     0.37000
C2989       C  0.22173468  0.46242054  0.66561925    -0.27200
C2990       C  0.21660626  0.47465034  0.68499328     0.02400
C2991       C  0.22631634  0.48049748  0.71422170     0.30500
C2992       C  0.24050192  0.47355055  0.72396329    -0.19000
C2993       C  0.24479761  0.46042451  0.70498054    -0.28400
C2994       C  0.23563509  0.45532335  0.67533602     0.44500
C2995       C  0.19960248  0.47927535  0.67499978     0.05700
O2996       O  0.22155199  0.49241846  0.73369368    -0.56900
H2997       H  0.24738527  0.47762685  0.74679950     0.18600
O2998       O  0.23975962  0.44292295  0.65584258    -0.63600
H2999       H  0.21426822  0.45764999  0.64318066     0.17100
C3000       C  0.20194964  0.49098076  0.64794367     0.29300
C3001       C  0.18420839  0.49162087  0.63560986    -0.24500
C3002       C  0.16377081  0.48027579  0.64957938    -0.23800
C3003       C  0.16185869  0.46963995  0.67775325     0.40800
C3004       C  0.17967031  0.46920604  0.69015741    -0.26300
O3005       O  0.22149320  0.50159230  0.63321267    -0.58200
H3006       H  0.18627750  0.50021993  0.61428675     0.16400
O3007       O  0.14250503  0.45896941  0.69292498    -0.59600
H3008       H  0.17761434  0.46005302  0.71093506     0.14900
H3009       H  0.25301198  0.45332924  0.64461035     0.46700
H3010       H  0.22007325  0.49223376  0.61565152     0.42100
H3011       H  0.14233075  0.47002692  0.70626481     0.45500
H3012       H  0.23176994  0.50770541  0.72816568     0.37000
C3013       C  0.00030106  0.51544433  0.48357312    -0.27200
C3014       C  0.99095948  0.49609013  0.50023597     0.02400
C3015       C  0.96836529  0.48342784  0.50246369     0.30500
C3016       C  0.95534669  0.48991544  0.48743184    -0.19000
C3017       C  0.96455997  0.50912928  0.47007305    -0.28400
C3018       C  0.98735518  0.52213565  0.46878050     0.44500
C3019       C  0.00498996  0.48928382  0.51523512     0.05700
O3020       O  0.95886217  0.46453494  0.51895885    -0.56900
H3021       H  0.93795422  0.47966999  0.48911720     0.18600
O3022       O  0.99723841  0.54114522  0.45258283    -0.63600
H3023       H  0.01774100  0.52542754  0.48207803     0.17100
C3024       C  0.01771383  0.48356701  0.49775810     0.29300
C3025       C  0.03164978  0.47806304  0.51237507    -0.24500
C3026       C  0.03347095  0.47868794  0.54444426    -0.23800
C3027       C  0.02019768  0.48387119  0.56191847     0.40800
C3028       C  0.00606836  0.48905101  0.54724675    -0.26300
O3029       O  0.01649284  0.48318764  0.46637878    -0.58200
H3030       H  0.04165594  0.47413278  0.49852684     0.16400
O3031       O  0.02116238  0.48432851  0.59332691    -0.59600
H3032       H  0.99626307  0.49337820  0.56086995     0.14900
H3033       H  0.99978712  0.55249811  0.46768759     0.46700
H3034       H  0.02881889  0.49725614  0.45961094     0.42100
H3035       H  0.01106635  0.46923817  0.59989152     0.45500
H3036       H  0.95759894  0.45333600  0.50449977     0.37000
C3037       C  0.87669532  0.44802836  0.82728228    -0.27200
C3038       C  0.87990121  0.46399394  0.84859479     0.02400
C3039       C  0.88443238  0.46167036  0.87929722     0.30500
C3040       C  0.88657094  0.44407654  0.88803122    -0.19000
C3041       C  0.88461291  0.42870761  0.86638203    -0.28400
C3042       C  0.87899223  0.43049629  0.83592760     0.44500
C3043       C  0.87971787  0.48359232  0.83824072     0.05700
O3044       O  0.88784067  0.47706105  0.90065082    -0.56900
H3045       H  0.89098450  0.44317579  0.91153298     0.18600
O3046       O  0.87629319  0.41557337  0.81420622    -0.63600
H3047       H  0.87282636  0.44941217  0.80366543     0.17100
C3048       C  0.89392968  0.49688675  0.81520198     0.29300
C3049       C  0.89364442  0.51532447  0.80555748    -0.24500
C3050       C  0.87921382  0.52092043  0.81842459    -0.23800
C3051       C  0.86525609  0.50776854  0.84199825     0.40800
C3052       C  0.86556602  0.48926628  0.85163227    -0.26300
O3053       O  0.90870370  0.49238194  0.80272588    -0.58200
H3054       H  0.90479742  0.52523124  0.78776753     0.16400
O3055       O  0.85071084  0.51233298  0.85505928    -0.59600
H3056       H  0.85452123  0.47915021  0.86938712     0.14900
H3057       H  0.86082779  0.40415728  0.81543082     0.46700
H3058       H  0.90278680  0.48609268  0.78230513     0.42100
H3059       H  0.85803946  0.52082338  0.87369137     0.45500
H3060       H  0.90348017  0.48794293  0.89940767     0.37000
C3061       C  0.78619447  0.25719302  0.78223099    -0.27200
C3062       C  0.80825358  0.26392215  0.78337007     0.02400
C3063       C  0.81516222  0.24981125  0.77361108     0.30500
C3064       C  0.79991284  0.22867728  0.76514066    -0.19000
C3065       C  0.77764733  0.22136142  0.76585620    -0.28400
C3066       C  0.77090592  0.23614539  0.77306647     0.44500
C3067       C  0.82345571  0.28397293  0.79964637     0.05700
O3068       O  0.83660715  0.25588853  0.77505267    -0.56900
H3069       H  0.80550823  0.21769685  0.75925625     0.18600
O3070       O  0.74937767  0.22970790  0.77389951    -0.63600
H3071       H  0.78075229  0.26796433  0.78988772     0.17100
C3072       C  0.84048801  0.30168069  0.78443375     0.29300
C3073       C  0.85622006  0.31923082  0.80138930    -0.24500
C3074       C  0.85533767  0.31918799  0.83359432    -0.23800
C3075       C  0.83776295  0.30166207  0.84858827     0.40800
C3076       C  0.82194150  0.28436775  0.83156380    -0.26300
O3077       O  0.84225801  0.30165330  0.75317385    -0.58200
H3078       H  0.86954641  0.33251186  0.78938670     0.16400
O3079       O  0.83577606  0.30132015  0.87986362    -0.59600
H3080       H  0.80884002  0.27077485  0.84345126     0.14900
H3081       H  0.74611460  0.23335306  0.75338398     0.46700
H3082       H  0.83314358  0.30733132  0.74523321     0.42100
H3083       H  0.84098767  0.29171063  0.88737752     0.45500
H3084       H  0.84232154  0.26128237  0.75422614     0.37000
C3085       C  0.98255186  0.32960008  0.92541130    -0.27200
C3086       C  0.97356872  0.31029956  0.90854470     0.02400
C3087       C  0.95317902  0.30249354  0.89455050     0.30500
C3088       C  0.94239814  0.31412788  0.89707510    -0.19000
C3089       C  0.95179294  0.33386966  0.91299145    -0.28400
C3090       C  0.97192848  0.34136116  0.92761974     0.44500
C3091       C  0.98562705  0.29852232  0.90601262     0.05700
O3092       O  0.94390148  0.28384180  0.87760537    -0.56900
H3093       H  0.92700552  0.30808417  0.88549384     0.18600
O3094       O  0.98146709  0.36022403  0.94408417    -0.63600
H3095       H  0.99794171  0.33562096  0.93698883     0.17100
C3096       C  0.00760162  0.30939848  0.89749597     0.29300
C3097       C  0.01922474  0.29856267  0.89797003    -0.24500
C3098       C  0.00925056  0.27663614  0.90634084    -0.23800
C3099       C  0.98695735  0.26549462  0.91346083     0.40800
C3100       C  0.97542642  0.27644774  0.91335027    -0.26300
O3101       O  0.01797145  0.33073183  0.88891390    -0.58200
H3102       H  0.03620528  0.30747115  0.89198312     0.16400
O3103       O  0.97632450  0.24404265  0.92143754    -0.59600
H3104       H  0.95857817  0.26777479  0.92004159     0.14900
H3105       H  0.97539483  0.35601151  0.96500326     0.46700
H3106       H  0.01474815  0.33059334  0.86676594     0.42100
H3107       H  0.97754421  0.24387364  0.94407771     0.45500
H3108       H  0.95020266  0.28832752  0.85684328     0.37000
C3109       C  0.03024183  0.46196025  0.73221238    -0.27200
C3110       C  0.02233214  0.44125966  0.74445057     0.02400
C3111       C  0.03040510  0.42830921  0.73378435     0.30500
C3112       C  0.04581268  0.43587359  0.71041742    -0.19000
C3113       C  0.05339688  0.45639039  0.69730029    -0.28400
C3114       C  0.04566964  0.46960669  0.70881009     0.44500
C3115       C  0.00538238  0.43301713  0.76807763     0.05700
O3116       O  0.02244981  0.40777436  0.74498290    -0.56900
H3117       H  0.05121063  0.42528760  0.70180184     0.18600
O3118       O  0.05317065  0.49006085  0.69755782    -0.63600
H3119       H  0.02427806  0.47213092  0.74064178     0.17100
C3120       C  0.01020781  0.43043487  0.79840633     0.29300
C3121       C  0.99370014  0.42102281  0.82006018    -0.24500
C3122       C  0.97211309  0.41414246  0.81204768    -0.23800
C3123       C  0.96746675  0.41741220  0.78166189     0.40800
C3124       C  0.98408233  0.42676982  0.75995888    -0.26300
O3125       O  0.03100613  0.43678569  0.80697094    -0.58200
H3126       H  0.99790624  0.41899821  0.84320641     0.16400
O3127       O  0.94678121  0.41119343  0.77268756    -0.59600
H3128       H  0.98027784  0.42878235  0.73656415     0.14900
H3129       H  0.04181684  0.48871827  0.68313819     0.46700
H3130       H  0.03730485  0.45192074  0.81404842     0.42100
H3131       H  0.94542820  0.42412926  0.77573255     0.45500
H3132       H  0.03289161  0.40912984  0.76103146     0.37000
C3133       C  0.01545696  0.52852905  0.99278121    -0.27200
C3134       C  0.00827322  0.50821664  0.00614858     0.02400
C3135       C  0.01416996  0.50697489  0.03647187     0.30500
C3136       C  0.02744119  0.52584960  0.05287723    -0.19000
C3137       C  0.03504568  0.54635107  0.03959447    -0.28400
C3138       C  0.02874735  0.54754106  0.00922937     0.44500
C3139       C  0.99462162  0.48823327  0.98857880     0.05700
O3140       O  0.00706249  0.48730977  0.05027202    -0.56900
H3141       H  0.03186700  0.52433220  0.07612398     0.18600
O3142       O  0.03607391  0.56708143  0.99496113    -0.63600
H3143       H  0.01103061  0.52963578  0.96935903     0.17100
C3144       C  0.97378202  0.48278544  0.97890599     0.29300
C3145       C  0.96038800  0.46286527  0.96480339    -0.24500
C3146       C  0.96761766  0.44823919  0.95952084    -0.23800
C3147       C  0.98885158  0.45412857  0.96832413     0.40800
C3148       C  0.00206098  0.47389620  0.98301618    -0.26300
O3149       O  0.96601443  0.49638838  0.98444336    -0.58200
H3150       H  0.94427412  0.45892881  0.95791055     0.16400
O3151       O  0.99663113  0.44044047  0.96371073    -0.59600
H3152       H  0.01814828  0.47800582  0.99034629     0.14900
H3153       H  0.02454620  0.57061728  0.99807207     0.46700
H3154       H  0.96799696  0.50432070  0.96495503     0.42100
H3155       H  0.00490259  0.44537608  0.94432256     0.45500
H3156       H  0.99286181  0.48333203  0.05928615     0.37000
C3157       C  0.99695522  0.17280932  0.70952245    -0.27200
C3158       C  0.99648269  0.18653489  0.73189343     0.02400
C3159       C  0.98764120  0.19949348  0.72435018     0.30500
C3160       C  0.97973388  0.19892395  0.69478567    -0.19000
C3161       C  0.98023454  0.18536074  0.67197998    -0.28400
C3162       C  0.98885252  0.17206357  0.67980353     0.44500
C3163       C  0.00576962  0.18809197  0.76292586     0.05700
O3164       O  0.98744454  0.21346403  0.74550480    -0.56900
H3165       H  0.97334990  0.20939775  0.68973131     0.18600
O3166       O  0.98941610  0.15823928  0.65876188    -0.63600
H3167       H  0.00368480  0.16270246  0.71509165     0.17100
C3168       C  0.99226637  0.18005177  0.78872686     0.29300
C3169       C  0.00113348  0.18557618  0.81829834    -0.24500
C3170       C  0.02356895  0.19889005  0.82277355    -0.23800
C3171       C  0.03719552  0.20558214  0.79685568     0.40800
C3172       C  0.02823940  0.20026034  0.76724710    -0.26300
O3173       O  0.97026097  0.16776856  0.78521914    -0.58200
H3174       H  0.99033660  0.18008243  0.83778724     0.16400
O3175       O  0.05909574  0.21905472  0.79998826    -0.59600
H3176       H  0.03880609  0.20669749  0.74757411     0.14900
H3177       H  0.00398546  0.16638633  0.64941928     0.46700
H3178       H  0.96712280  0.15269964  0.78320515     0.42100
H3179       H  0.06518698  0.20938401  0.79993416     0.45500
H3180       H  0.97290378  0.20552559  0.75496220     0.37000
C3181       C  0.89147141  0.08481821  0.49333105    -0.27200
C3182       C  0.88037801  0.06920257  0.51598251     0.02400
C3183       C  0.88637179  0.07441357  0.54691448     0.30500
C3184       C  0.90291965  0.09531414  0.55489166    -0.19000
C3185       C  0.91309255  0.11132855  0.53232155    -0.28400
C3186       C  0.90746025  0.10583242  0.50131253     0.44500
C3187       C  0.86164591  0.04812789  0.50685594     0.05700
O3188       O  0.87595161  0.05926834  0.56943116    -0.56900
H3189       H  0.90681290  0.09937032  0.57885825     0.18600
O3190       O  0.91731861  0.12104544  0.47868006    -0.63600
H3191       H  0.88699993  0.08097268  0.46944877     0.17100
C3192       C  0.84043291  0.04319767  0.51318732     0.29300
C3193       C  0.82278947  0.02422294  0.50163368    -0.24500
C3194       C  0.82587949  0.00999921  0.48316371    -0.23800
C3195       C  0.84725866  0.01486523  0.47734387     0.40800
C3196       C  0.86487777  0.03379992  0.48915133    -0.26300
O3197       O  0.83678085  0.05721460  0.52975370    -0.58200
H3198       H  0.80663496  0.02105246  0.50633641     0.16400
O3199       O  0.85118562  0.00120155  0.46037048    -0.59600
H3200       H  0.88116436  0.03751956  0.48401818     0.14900
H3201       H  0.90682099  0.12561282  0.47309306     0.46700
H3202       H  0.83683657  0.06751269  0.51449975     0.42100
H3203       H  0.85467877  0.00759251  0.43952223     0.45500
H3204       H  0.86528772  0.06263987  0.57819621     0.37000
C3205       C  0.04568545  0.17935475  0.50738832    -0.27200
C3206       C  0.06087165  0.19835943  0.49242142     0.02400
C3207       C  0.05657473  0.21528843  0.48876004     0.30500
C3208       C  0.03735476  0.21309548  0.49995909    -0.19000
C3209       C  0.02217521  0.19422272  0.51543050    -0.28400
C3210       C  0.02651161  0.17721201  0.51897861     0.44500
C3211       C  0.08151931  0.20085350  0.48150196     0.05700
O3212       O  0.07131505  0.23427699  0.47484466    -0.56900
H3213       H  0.03462374  0.22651475  0.49714615     0.18600
O3214       O  0.01196936  0.15824648  0.53310954    -0.63600
H3215       H  0.04873654  0.16613986  0.51015659     0.17100
C3216       C  0.09628743  0.20026954  0.50219897     0.29300
C3217       C  0.11678255  0.20526147  0.49210462    -0.24500
C3218       C  0.12284436  0.21059970  0.46127434    -0.23800
C3219       C  0.10752219  0.20997380  0.44023429     0.40800
C3220       C  0.08714327  0.20530495  0.45049696    -0.26300
O3221       O  0.09139482  0.19633218  0.53273835    -0.58200
H3222       H  0.12817290  0.20551141  0.50871538     0.16400
O3223       O  0.11271095  0.21529263  0.41001931    -0.59600
H3224       H  0.07584862  0.20568596  0.43430747     0.14900
H3225       H  0.01736329  0.15957051  0.55441914     0.46700
H3226       H  0.08701976  0.18094686  0.53583402     0.42100
H3227       H  0.10743858  0.20131205  0.39936509     0.45500
H3228       H  0.08119258  0.24335332  0.49149085     0.37000
C3229       C  0.84687354  0.14318875  0.62475237    -0.27200
C3230       C  0.84297687  0.15789127  0.64021636     0.02400
C3231       C  0.85896267  0.17998969  0.64045378     0.30500
C3232       C  0.87891907  0.18701254  0.62645114    -0.19000
C3233       C  0.88306287  0.17227385  0.61148748    -0.28400
C3234       C  0.86670115  0.15022806  0.61027866     0.44500
C3235       C  0.82320208  0.14996860  0.65869064     0.05700
O3236       O  0.85532437  0.19478609  0.65483109    -0.56900
H3237       H  0.89112980  0.20402621  0.62714247     0.18600
O3238       O  0.87040911  0.13522520  0.59668194    -0.63600
H3239       H  0.83481007  0.12611787  0.62480912     0.17100
C3240       C  0.80245851  0.13981006  0.64534006     0.29300
C3241       C  0.78435839  0.13443213  0.66358472    -0.24500
C3242       C  0.78674343  0.13889825  0.69520430    -0.23800
C3243       C  0.80745504  0.14760727  0.70864495     0.40800
C3244       C  0.82540448  0.15320096  0.69038276    -0.26300
O3245       O  0.79990765  0.13639720  0.61432090    -0.58200
H3246       H  0.76863820  0.12770883  0.65273986     0.16400
O3247       O  0.81052623  0.15139684  0.73954925    -0.59600
H3248       H  0.84126343  0.16049225  0.70097283     0.14900
H3249       H  0.86345080  0.13257424  0.57621695     0.46700
H3250       H  0.79608107  0.12117900  0.61145280     0.42100
H3251       H  0.80786302  0.13757359  0.74862518     0.45500
H3252       H  0.84732817  0.19841993  0.63966059     0.37000
C3253       C  0.02501184  0.31116171  0.55741830    -0.27200
C3254       C  0.02082636  0.32123343  0.58151304     0.02400
C3255       C  0.00514999  0.30851389  0.60344165     0.30500
C3256       C  0.99378611  0.28587589  0.60098996    -0.19000
C3257       C  0.99785404  0.27557166  0.57672402    -0.28400
C3258       C  0.01367323  0.28863697  0.55471723     0.44500
C3259       C  0.03300072  0.34509022  0.58332699     0.05700
O3260       O  0.00064989  0.31808034  0.62712204    -0.56900
H3261       H  0.98172029  0.27640865  0.61807183     0.18600
O3262       O  0.01836665  0.27968061  0.53042547    -0.63600
H3263       H  0.03707457  0.32086438  0.54043234     0.17100
C3264       C  0.05354157  0.35614645  0.59716837     0.29300
C3265       C  0.06502038  0.37878854  0.59829393    -0.24500
C3266       C  0.05652113  0.39075887  0.58491919    -0.23800
C3267       C  0.03606988  0.37955745  0.57043875     0.40800
C3268       C  0.02441910  0.35689555  0.56997886    -0.26300
O3269       O  0.06239416  0.34491969  0.60998155    -0.58200
H3270       H  0.08070814  0.38701261  0.60941622     0.16400
O3271       O  0.02687207  0.39054262  0.55788908    -0.59600
H3272       H  0.00865441  0.34849207  0.55907947     0.14900
H3273       H  0.00905119  0.27944928  0.51339735     0.46700
H3274       H  0.07033837  0.34285241  0.59312040     0.42100
H3275       H  0.03012813  0.39153684  0.53569713     0.45500
H3276       H  0.01143382  0.32051690  0.64325795     0.37000
C3277       C  0.88319729  0.34244222  0.11414350    -0.27200
C3278       C  0.86460760  0.33216779  0.09575266     0.02400
C3279       C  0.84530701  0.31538970  0.10832402     0.30500
C3280       C  0.84492832  0.30880550  0.13872261    -0.19000
C3281       C  0.86367259  0.31882183  0.15710871    -0.28400
C3282       C  0.88292423  0.33589616  0.14441853     0.44500
C3283       C  0.86625586  0.33808240  0.06290564     0.05700
O3284       O  0.82681466  0.30515137  0.09095100    -0.56900
H3285       H  0.82994735  0.29569534  0.14781271     0.18600
O3286       O  0.90181566  0.34592180  0.16097342    -0.63600
H3287       H  0.89827933  0.35511272  0.10460938     0.17100
C3288       C  0.87379590  0.35955408  0.05381185     0.29300
C3289       C  0.87832672  0.36541527  0.02292853    -0.24500
C3290       C  0.87591999  0.35019301  0.00068731    -0.23800
C3291       C  0.86718498  0.32840517  0.00970642     0.40800
C3292       C  0.86244951  0.32254691  0.04056533    -0.26300
O3293       O  0.87694627  0.37493816  0.07504889    -0.58200
H3294       H  0.88476286  0.38220510  0.01672293     0.16400
O3295       O  0.86404681  0.31282187  0.98887740    -0.59600
H3296       H  0.85672264  0.30596418  0.04727620     0.14900
H3297       H  0.90913085  0.33766620  0.15647039     0.46700
H3298       H  0.89283298  0.38379051  0.07798178     0.42100
H3299       H  0.84917579  0.30718289  0.98088069     0.45500
H3300       H  0.81958923  0.31364911  0.09396447     0.37000
C3301       C  0.76112728  0.22987083  0.33407586    -0.27200
C3302       C  0.74631299  0.21515237  0.31281835     0.02400
C3303       C  0.75126892  0.21837484  0.28139149     0.30500
C3304       C  0.77176327  0.23473982  0.27193362    -0.19000
C3305       C  0.78748513  0.24800473  0.29354458    -0.28400
C3306       C  0.78148792  0.24634055  0.32467115     0.44500
C3307       C  0.72666956  0.19560602  0.32409015     0.05700
O3308       O  0.73618057  0.20549627  0.25991709    -0.56900
H3309       H  0.77567964  0.23617607  0.24778701     0.18600
O3310       O  0.79572985  0.25995148  0.34639914    -0.63600
H3311       H  0.75733243  0.22791672  0.35829368     0.17100
C3312       C  0.72259398  0.17481540  0.31646807     0.29300
C3313       C  0.70467407  0.15648830  0.32869683    -0.24500
C3314       C  0.69081133  0.15840384  0.34939687    -0.23800
C3315       C  0.69528162  0.17935000  0.35756730     0.40800
C3316       C  0.71295740  0.19764883  0.34474728    -0.26300
O3317       O  0.73644628  0.17220610  0.29788936    -0.58200
H3318       H  0.70194051  0.14071900  0.32238894     0.16400
O3319       O  0.68256120  0.18225204  0.37804894    -0.59600
H3320       H  0.71613195  0.21354763  0.35126786     0.14900
H3321       H  0.79400695  0.27279554  0.34623929     0.46700
H3322       H  0.74823543  0.17380829  0.31158057     0.42100
H3323       H  0.68964832  0.18398639  0.39825360     0.45500
H3324       H  0.74225840  0.19746425  0.24962771     0.37000
C3325       C  0.88753000  0.39108866  0.32894414    -0.27200
C3326       C  0.86793154  0.38819882  0.33991763     0.02400
C3327       C  0.84931419  0.36755516  0.33976999     0.30500
C3328       C  0.85046051  0.34999316  0.32834564    -0.19000
C3329       C  0.87003052  0.35301324  0.31682795    -0.28400
C3330       C  0.88867223  0.37365944  0.31741459     0.44500
C3331       C  0.86746945  0.40726673  0.35068890     0.05700
O3332       O  0.82984102  0.36466855  0.34925489    -0.56900
H3333       H  0.83595475  0.33416874  0.32758511     0.18600
O3334       O  0.90805389  0.37694967  0.30672754    -0.63600
H3335       H  0.90196225  0.40698500  0.32919585     0.17100
C3336       C  0.86642091  0.41077759  0.38207900     0.29300
C3337       C  0.87066881  0.43102388  0.39218483    -0.24500
C3338       C  0.87619461  0.44797418  0.37120122    -0.23800
C3339       C  0.87552394  0.44368308  0.33946933     0.40800
C3340       C  0.87135411  0.42350503  0.32956539    -0.26300
O3341       O  0.86255728  0.39497777  0.40310951    -0.58200
H3342       H  0.87082131  0.43375546  0.41659493     0.16400
O3343       O  0.88040196  0.45944011  0.31790964    -0.59600
H3344       H  0.87218959  0.42083141  0.30531156     0.14900
H3345       H  0.91451297  0.37324892  0.32415275     0.46700
H3346       H  0.87699178  0.39714969  0.40830663     0.42100
H3347       H  0.86634527  0.45805651  0.31235483     0.45500
H3348       H  0.82800921  0.35907363  0.37049824     0.37000
C3349       C  0.89322517  0.22921387  0.37554989    -0.27200
C3350       C  0.90099744  0.24014795  0.40341611     0.02400
C3351       C  0.90031833  0.25916624  0.40868489     0.30500
C3352       C  0.89259781  0.26732599  0.38577538    -0.19000
C3353       C  0.88564121  0.25675977  0.35745335    -0.28400
C3354       C  0.88548784  0.23726238  0.35280325     0.44500
C3355       C  0.91040965  0.23182398  0.42615925     0.05700
O3356       O  0.90753065  0.27008809  0.43587820    -0.56900
H3357       H  0.89279967  0.28230931  0.38971947     0.18600
O3358       O  0.87816162  0.22611078  0.32577634    -0.63600
H3359       H  0.89368529  0.21463378  0.37103984     0.17100
C3360       C  0.89865853  0.21025841  0.43638322     0.29300
C3361       C  0.90804713  0.20253144  0.45717224    -0.24500
C3362       C  0.92930362  0.21591916  0.46790757    -0.23800
C3363       C  0.94118767  0.23744117  0.45724187     0.40800
C3364       C  0.93168029  0.24522876  0.43664659    -0.26300
O3365       O  0.87762850  0.19691357  0.42724036    -0.58200
H3366       H  0.89849102  0.18599826  0.46517685     0.16400
O3367       O  0.96167004  0.25133474  0.46791300    -0.59600
H3368       H  0.94101016  0.26179561  0.42869958     0.14900
H3369       H  0.86231362  0.21669033  0.32841967     0.46700
H3370       H  0.87802679  0.18643496  0.41291864     0.42100
H3371       H  0.97147752  0.25088484  0.45240934     0.45500
H3372       H  0.89495010  0.26303860  0.44984525     0.37000
C3373       C  0.03093202  0.35170378  0.26406929    -0.27200
C3374       C  0.02020637  0.36206498  0.25260294     0.02400
C3375       C  0.03250541  0.38329783  0.24116480     0.30500
C3376       C  0.05504736  0.39375497  0.24121955    -0.19000
C3377       C  0.06578627  0.38319879  0.25184121    -0.28400
C3378       C  0.05350736  0.36199971  0.26349848     0.44500
C3379       C  0.99624556  0.35062096  0.25245573     0.05700
O3380       O  0.02265889  0.39381359  0.22914045    -0.56900
H3381       H  0.06412424  0.40996148  0.23187347     0.18600
O3382       O  0.06334147  0.35115702  0.27432534    -0.63600
H3383       H  0.02178161  0.33555682  0.27356261     0.17100
C3384       C  0.98386736  0.32962312  0.24029644     0.29300
C3385       C  0.96129090  0.31923430  0.24023334    -0.24500
C3386       C  0.95066551  0.32950586  0.25199870    -0.23800
C3387       C  0.96306986  0.35056622  0.26406947     0.40800
C3388       C  0.98562599  0.36086276  0.26436711    -0.26300
O3389       O  0.99371006  0.31950909  0.22721461    -0.58200
H3390       H  0.95207793  0.30312746  0.23065104     0.16400
O3391       O  0.95337409  0.36113931  0.27610572    -0.59600
H3392       H  0.99486238  0.37686448  0.27426933     0.14900
H3393       H  0.06566502  0.35456085  0.29650006     0.46700
H3394       H  0.99122135  0.30775198  0.24161657     0.42100
H3395       H  0.95129763  0.35719807  0.29813331     0.45500
H3396       H  0.01995901  0.38945917  0.20729210     0.37000
C3397       C  0.83008310  0.19005542  0.17167319    -0.27200
C3398       C  0.83585412  0.17655272  0.18726650     0.02400
C3399       C  0.84818921  0.18408402  0.21442718     0.30500
C3400       C  0.85487649  0.20485380  0.22511178    -0.19000
C3401       C  0.84888010  0.21819936  0.20967346    -0.28400
C3402       C  0.83623436  0.21059375  0.18289207     0.44500
C3403       C  0.83001353  0.15526265  0.17401456     0.05700
O3404       O  0.85367122  0.17123995  0.23086707    -0.56900
H3405       H  0.86431053  0.21031954  0.24605793     0.18600
O3406       O  0.83006295  0.22319334  0.16724695    -0.63600
H3407       H  0.82112852  0.18487206  0.15034316     0.17100
C3408       C  0.80904879  0.14100132  0.16273597     0.29300
C3409       C  0.80466153  0.12199654  0.14768912    -0.24500
C3410       C  0.82089127  0.11676413  0.14382610    -0.23800
C3411       C  0.84157173  0.13056457  0.15658925     0.40800
C3412       C  0.84599050  0.14965359  0.17113940    -0.26300
O3413       O  0.79265015  0.14526791  0.16697630    -0.58200
H3414       H  0.78853215  0.11147282  0.13872597     0.16400
O3415       O  0.85780725  0.12586864  0.15454622    -0.59600
H3416       H  0.86227553  0.16046573  0.17933526     0.14900
H3417       H  0.84207108  0.23193496  0.15286976     0.46700
H3418       H  0.78909264  0.14834403  0.14626169     0.42100
H3419       H  0.86626084  0.13380895  0.13621666     0.45500
H3420       H  0.84122006  0.16256409  0.24460152     0.37000
loop_ 
_geom_bond_atom_site_label_1 
_geom_bond_atom_site_label_2 
_geom_bond_distance 
_geom_bond_site_symmetry_2 
_ccdc_geom_bond_type 
Zn1           O5   1.948       .  S
Zn1           O6   2.041       .  S
Zn1          O10   1.992       .  S
Zn1          O17   2.001       .  S
Zn2           O5   1.931       .  S
Zn2           O7   1.990       .  S
Zn2           O9   1.983       .  S
Zn2          O13   2.008       .  S
Zn3           O5   1.950       .  S
Zn3           O8   2.025       .  S
Zn3          O11   2.012       .  S
Zn3          O14   2.032       .  S
Zn4           O5   1.927       .  S
Zn4          O12   2.008       .  S
Zn4          O15   2.003       .  S
Zn4          O16   1.991       .  S
O6           C18   1.275       .  A
O7           C19   1.271       .  A
O8           C20   1.276       .  A
O9           C18   1.269       .  A
O10          C20   1.272       .  A
O11          C19   1.273       .  A
O12          C21   1.273       .  A
O13          C22   1.273       .  A
O14          C21   1.276       .  A
O15          C22   1.272       .  A
O16          C23   1.272       .  A
O17          C23   1.272       .  A
C18        C3353   1.476       .  S
C19        C3401   1.472       .  S
C20        C3305   1.482       .  S
C21        C3281   1.488       .  S
C22        C3386   1.477       .  S
C23        C3329   1.462       .  S
Zn24         O28   1.939       .  S
Zn24         O29   1.994       .  S
Zn24         O33   2.036       .  S
Zn24         O40   2.014       .  S
Zn25         O28   1.952       .  S
Zn25         O30   2.046       .  S
Zn25         O32   2.057       .  S
Zn25         O36   2.025       .  S
Zn26         O28   1.918       .  S
Zn26         O31   1.984       .  S
Zn26         O34   1.974       .  S
Zn26         O37   1.978       .  S
Zn27         O28   1.960       .  S
Zn27         O35   2.065       .  S
Zn27         O38   2.053       .  S
Zn27         O39   2.035       .  S
O29          C41   1.272       .  A
O30          C42   1.278       .  A
O31          C43   1.269       .  A
O32          C41   1.279       .  A
O33          C43   1.274       .  A
O34          C42   1.269       .  A
O35          C44   1.279       .  A
O36          C45   1.277       .  A
O37          C44   1.269       .  A
O38          C45   1.279       .  A
O39          C46   1.278   1_655  A
O40          C46   1.277   1_655  A
C41        C3257   1.494       .  S
C42        C3233   1.476       .  S
C43        C3362   1.483       .  S
C44        C3185   1.476       .  S
C45        C3161   1.498       .  S
C46        C3209   1.487       .  S
Zn47         O51   1.947       .  S
Zn47         O52   2.024       .  S
Zn47         O56   2.018       .  S
Zn47         O63   1.991       .  S
Zn48         O51   1.937       .  S
Zn48         O53   2.026       .  S
Zn48         O55   2.033       .  S
Zn48         O59   2.005       .  S
Zn49         O51   1.942       .  S
Zn49         O54   1.994       .  S
Zn49         O57   2.014       .  S
Zn49         O60   2.011       .  S
Zn50         O51   1.955       .  S
Zn50         O58   2.024       .  S
Zn50         O61   2.027       .  S
Zn50         O62   2.030       .  S
O52          C64   1.275       .  A
O53          C65   1.276       .  A
O54          C66   1.271       .  A
O55          C64   1.275       .  A
O56          C66   1.274       .  A
O57          C65   1.275       .  A
O58          C67   1.275       .  A
O59          C68   1.275       .  A
O60          C67   1.274       .  A
O61          C68   1.276       .  A
O62          C69   1.275       .  A
O63          C69   1.272       .  A
C64        C3089   1.487       .  S
C65        C3290   1.488   1_556  S
C66        C3146   1.482       .  S
C67        C3041   1.484       .  S
C68        C3074   1.481       .  S
C69        C3122   1.486       .  S
Zn70         O74   1.982       .  S
Zn70         O75   2.069       .  S
Zn70         O79   2.042       .  S
Zn70         O86   2.064       .  S
Zn71         O74   1.952       .  S
Zn71         O76   2.024       .  S
Zn71         O78   2.008       .  S
Zn71         O82   2.030       .  S
Zn72         O74   1.959       .  S
Zn72         O77   2.020       .  S
Zn72         O80   2.026       .  S
Zn72         O83   2.033       .  S
Zn73         O74   1.938       .  S
Zn73         O81   1.989       .  S
Zn73         O84   1.977       .  S
Zn73         O85   1.965       .  S
O75          C87   1.280       .  A
O76          C88   1.275       .  A
O77          C89   1.276       .  A
O78          C87   1.275       .  A
O79          C89   1.278       .  A
O80          C88   1.275       .  A
O81          C90   1.269       .  A
O82          C91   1.274       .  A
O83          C90   1.275       .  A
O84          C91   1.267       .  A
O85          C92   1.268       .  A
O86          C92   1.278       .  A
C87        C2945   1.498       .  S
C88        C3266   1.485       .  S
C89        C3002   1.490       .  S
C90        C3113   1.484       .  S
C91        C3026   1.478       .  S
C92        C2978   1.475       .  S
Zn93         O97   1.944       .  S
Zn93         O98   2.022       .  S
Zn93        O102   2.022       .  S
Zn93        O109   2.000       .  S
Zn94         O97   1.961       .  S
Zn94         O99   1.992       .  S
Zn94        O101   2.047       .  S
Zn94        O105   2.037       .  S
Zn95         O97   1.961       .  S
Zn95        O100   2.029       .  S
Zn95        O103   2.016       .  S
Zn95        O106   2.018       .  S
Zn96         O97   1.968       .  S
Zn96        O104   2.044       .  S
Zn96        O107   2.036       .  S
Zn96        O108   2.038       .  S
O98         C110   1.274       .  A
O99         C111   1.271       .  A
O100        C112   1.275       .  A
O101        C110   1.277       .  A
O102        C112   1.274       .  A
O103        C111   1.274       .  A
O104        C113   1.277       .  A
O105        C114   1.277       .  A
O106        C113   1.274       .  A
O107        C114   1.277       .  A
O108        C115   1.276       .  A
O109        C115   1.274       .  A
C110       C3170   1.490       .  S
C111       C2930   1.482       .  S
C112       C3098   1.491       .  S
C113       C2897   1.496   1_556  S
C114       C2849   1.491       .  S
C115       C2882   1.472   1_455  S
Zn116       O120   1.942       .  S
Zn116       O121   2.005       .  S
Zn116       O125   2.001       .  S
Zn116       O132   2.015       .  S
Zn117       O120   1.958       .  S
Zn117       O122   2.011       .  S
Zn117       O124   2.013       .  S
Zn117       O128   2.018       .  S
Zn118       O120   1.968       .  S
Zn118       O123   2.035       .  S
Zn118       O126   2.047       .  S
Zn118       O129   2.014       .  S
Zn119       O120   1.964       .  S
Zn119       O127   2.036       .  S
Zn119       O130   2.018       .  S
Zn119       O131   2.055       .  S
O121        C133   1.273       .  A
O122        C134   1.273       .  A
O123        C135   1.275       .  A
O124        C133   1.273       .  A
O125        C135   1.273       .  A
O126        C134   1.276       .  A
O127        C136   1.278       .  A
O128        C137   1.274       .  A
O129        C136   1.275       .  A
O130        C137   1.274       .  A
O131        C138   1.277       .  A
O132        C138   1.274       .  A
C133       C3377   1.478       .  S
C134       C2906   1.488       .  S
C135       C2810   1.486       .  S
C136       C2777   1.487       .  S
C137       C2825   1.481       .  S
C138       C2954   1.492       .  S
Zn139       O143   1.933       .  S
Zn139       O144   1.991       .  S
Zn139       O148   1.993       .  S
Zn139       O155   1.974       .  S
Zn140       O143   1.953       .  S
Zn140       O145   2.034       .  S
Zn140       O147   2.025       .  S
Zn140       O151   2.006       .  S
Zn141       O143   1.931       .  S
Zn141       O146   2.023       .  S
Zn141       O149   2.012       .  S
Zn141       O152   2.016       .  S
Zn142       O143   1.951       .  S
Zn142       O150   2.022       .  S
Zn142       O153   2.013       .  S
Zn142       O154   2.032       .  S
O144        C156   1.270       .  A
O145        C157   1.276       .  A
O146        C158   1.276       .  A
O147        C156   1.273       .  A
O148        C158   1.272       .  A
O149        C157   1.275       .  A
O150        C159   1.275       .  A
O151        C160   1.275       .  A
O152        C159   1.275       .  A
O153        C160   1.276       .  A
O154        C161   1.274       .  A
O155        C161   1.268       .  A
C156       C2762   1.481       .  S
C157       C2657   1.491       .  S
C158       C2705   1.480       .  S
C159       C2969   1.483       .  S
C160       C2690   1.482       .  S
C161       C2729   1.476       .  S
Zn162       O166   1.936       .  S
Zn162       O167   2.025       .  S
Zn162       O171   2.003       .  S
Zn162       O178   2.008       .  S
Zn163       O166   1.934       .  S
Zn163       O168   1.988       .  S
Zn163       O170   1.994       .  S
Zn163       O174   1.983       .  S
Zn164       O166   1.955       .  S
Zn164       O169   2.047       .  S
Zn164       O172   2.020       .  S
Zn164       O175   2.030       .  S
Zn165       O166   1.952       .  S
Zn165       O173   2.013       .  S
Zn165       O176   2.036       .  S
Zn165       O177   2.015       .  S
O167        C179   1.275       .  A
O168        C180   1.270       .  A
O169        C181   1.278       .  A
O170        C179   1.270       .  A
O171        C181   1.273       .  A
O172        C180   1.274       .  A
O173        C182   1.274       .  A
O174        C183   1.270       .  A
O175        C182   1.277       .  A
O176        C183   1.275       .  A
O177        C184   1.274       .  A
O178        C184   1.275       .  A
C179       C2633   1.483       .  S
C180       C2609   1.472       .  S
C181       C2537   1.491       .  S
C182       C2561   1.490       .  S
C183       C2738   1.475       .  S
C184       C2585   1.481   1_455  S
Zn185       O189   1.958       .  S
Zn185       O190   2.030       .  S
Zn185       O194   2.050       .  S
Zn185       O201   2.042       .  S
Zn186       O189   1.950       .  S
Zn186       O191   1.996       .  S
Zn186       O193   2.016       .  S
Zn186       O197   2.024       .  S
Zn187       O189   1.949       .  S
Zn187       O192   1.991       .  S
Zn187       O195   2.016       .  S
Zn187       O198   2.019       .  S
Zn188       O189   1.933       .  S
Zn188       O196   2.001       .  S
Zn188       O199   2.003       .  S
Zn188       O200   1.998       .  S
O190        C202   1.276       .  A
O191        C203   1.272       .  A
O192        C204   1.271       .  A
O193        C202   1.275       .  A
O194        C204   1.278       .  A
O195        C203   1.273       .  A
O196        C205   1.272       .  A
O197        C206   1.274       .  A
O198        C205   1.273       .  A
O199        C206   1.273       .  A
O200        C207   1.273       .  A
O201        C207   1.277       .  A
C202       C2465   1.491       .  S
C203       C2489   1.484       .  S
C204       C2513   1.484       .  S
C205       C2714   1.478       .  S
C206       C2450   1.487       .  S
C207       C3050   1.488       .  S
Zn208       O212   1.946       .  S
Zn208       O213   2.022       .  S
Zn208       O217   1.992       .  S
Zn208       O224   2.014       .  S
Zn209       O212   1.934       .  S
Zn209       O214   2.015       .  S
Zn209       O216   2.028       .  S
Zn209       O220   2.001   1_655  S
Zn210       O212   1.949       .  S
Zn210       O215   2.011       .  S
Zn210       O218   2.021       .  S
Zn210       O221   2.005       .  S
Zn211       O212   1.952       .  S
Zn211       O219   2.040       .  S
Zn211       O222   2.027       .  S
Zn211       O223   2.025       .  S
O213        C225   1.274       .  A
O214        C226   1.274       .  A
O215        C227   1.274       .  A
O216        C225   1.276       .  A
O217        C227   1.270       .  A
O218        C226   1.274       .  A
O219        C228   1.277       .  A
O220        C229   1.275       .  A
O221        C228   1.272       .  A
O222        C229   1.275   1_655  A
O223        C230   1.277       .  A
O224        C230   1.274       .  A
C225       C2546   1.492       .  S
C226       C2417   1.485   1_655  S
C227       C2402   1.471       .  S
C228       C2522   1.483   1_554  S
C229       C2378   1.485       .  S
C230       C2345   1.488       .  S
Zn231       O235   1.940       .  S
Zn231       O236   2.017       .  S
Zn231       O240   1.981       .  S
Zn231       O247   1.996       .  S
Zn232       O235   1.941       .  S
Zn232       O237   2.003       .  S
Zn232       O239   2.011       .  S
Zn232       O243   1.994       .  S
Zn233       O235   1.980       .  S
Zn233       O238   2.056       .  S
Zn233       O241   2.040       .  S
Zn233       O244   2.060       .  S
Zn234       O235   1.951       .  S
Zn234       O242   1.981       .  S
Zn234       O245   2.029       .  S
Zn234       O246   2.025       .  S
O236        C248   1.273       .  A
O237        C249   1.274       .  A
O238        C250   1.278       .  A
O239        C248   1.273       .  A
O240        C250   1.271       .  A
O241        C249   1.277       .  A
O242        C251   1.271       .  A
O243        C252   1.271       .  A
O244        C251   1.279       .  A
O245        C252   1.274       .  A
O246        C253   1.273       .  A
O247        C253   1.271       .  A
C248       C2330   1.476       .  S
C249       C2297   1.489       .  S
C250       C2801   1.476       .  S
C251       C2666   1.491   1_554  S
C252       C2426   1.485       .  S
C253       C3137   1.486       .  S
Zn254       O258   1.936       .  S
Zn254       O259   2.002       .  S
Zn254       O263   2.006       .  S
Zn254       O270   1.998       .  S
Zn255       O258   1.953       .  S
Zn255       O260   2.041       .  S
Zn255       O262   2.027       .  S
Zn255       O266   1.988       .  S
Zn256       O258   1.942       .  S
Zn256       O261   2.003       .  S
Zn256       O264   1.988       .  S
Zn256       O267   2.012       .  S
Zn257       O258   1.957       .  S
Zn257       O265   2.013       .  S
Zn257       O268   2.016       .  S
Zn257       O269   2.022       .  S
O259        C271   1.273       .  A
O260        C272   1.276       .  A
O261        C273   1.272       .  A
O262        C271   1.274       .  A
O263        C273   1.272       .  A
O264        C272   1.270       .  A
O265        C274   1.273       .  A
O266        C275   1.272       .  A
O267        C274   1.273       .  A
O268        C275   1.275       .  A
O269        C276   1.275       .  A
O270        C276   1.272       .  A
C271       C2273   1.475       .  S
C272       C2321   1.488       .  S
C273       C2642   1.475       .  S
C274       C3017   1.487       .  S
C275       C3338   1.481       .  S
C276       C2441   1.480       .  S
Zn277       O281   1.945       .  S
Zn277       O282   2.006       .  S
Zn277       O286   2.020       .  S
Zn277       O293   2.009       .  S
Zn278       O281   1.953       .  S
Zn278       O283   1.989       .  S
Zn278       O285   2.017       .  S
Zn278       O289   2.035       .  S
Zn279       O281   1.963       .  S
Zn279       O284   2.042       .  S
Zn279       O287   2.034       .  S
Zn279       O290   2.014       .  S
Zn280       O281   1.946       .  S
Zn280       O288   1.995       .  S
Zn280       O291   2.004       .  S
Zn280       O292   1.991       .  S
O282        C294   1.273       .  A
O283        C295   1.272       .  A
O284        C296   1.277       .  A
O285        C294   1.273       .  A
O286        C296   1.274       .  A
O287        C295   1.277       .  A
O288        C297   1.271       .  A
O289        C298   1.274       .  A
O290        C297   1.273       .  A
O291        C298   1.272       .  A
O292        C299   1.271       .  A
O293        C299   1.273       .  A
C294       C2201   1.477       .  S
C295       C2282   1.487       .  S
C296       C2177   1.488       .  S
C297       C2393   1.482       .  S
C298       C2225   1.486       .  S
C299       C2249   1.474       .  S
Zn300       O304   1.933       .  S
Zn300       O305   1.966       .  S
Zn300       O309   1.975       .  S
Zn300       O316   2.002       .  S
Zn301       O304   1.958       .  S
Zn301       O306   2.008       .  S
Zn301       O308   2.047       .  S
Zn301       O312   2.042       .  S
Zn302       O304   1.975       .  S
Zn302       O307   2.056       .  S
Zn302       O310   2.062       .  S
Zn302       O313   2.031       .  S
Zn303       O304   1.950       .  S
Zn303       O311   2.014       .  S
Zn303       O314   2.004       .  S
Zn303       O315   2.029       .  S
O305        C317   1.267       .  A
O306        C318   1.274       .  A
O307        C319   1.278       .  A
O308        C317   1.276       .  A
O309        C319   1.271       .  A
O310        C318   1.279       .  A
O311        C320   1.275       .  A
O312        C321   1.278       .  A
O313        C320   1.277       .  A
O314        C321   1.273       .  A
O315        C322   1.274       .  A
O316        C322   1.270       .  A
C317       C2498   1.474       .  S
C318       C2105   1.496       .  S
C319       C2594   1.475       .  S
C320       C2129   1.485       .  S
C321       C2153   1.492       .  S
C322       C2234   1.488       .  S
Zn323       O327   1.929       .  S
Zn323       O328   2.015       .  S
Zn323       O332   2.015       .  S
Zn323       O339   1.988       .  S
Zn324       O327   1.953       .  S
Zn324       O329   2.012       .  S
Zn324       O331   2.045       .  S
Zn324       O335   2.026       .  S
Zn325       O327   1.938       .  S
Zn325       O330   2.005       .  S
Zn325       O333   1.997       .  S
Zn325       O336   1.959       .  S
Zn326       O327   1.964       .  S
Zn326       O334   2.054   1_556  S
Zn326       O337   2.011       .  S
Zn326       O338   2.046       .  S
O328        C340   1.275       .  A
O329        C341   1.273       .  A
O330        C342   1.271       .  A
O331        C340   1.278       .  A
O332        C342   1.273       .  A
O333        C341   1.271       .  A
O334        C343   1.277       .  A
O335        C344   1.277       .  A
O336        C343   1.267   1_556  A
O337        C344   1.275       .  A
O338        C345   1.277       .  A
O339        C345   1.272       .  A
C340       C2114   1.490       .  S
C341       C2081   1.484       .  S
C342       C2033   1.486       .  S
C343       C2057   1.485       .  S
C344       C2018   1.488       .  S
C345       C2354   1.477       .  S
Zn346       O350   1.926       .  S
Zn346       O351   2.013       .  S
Zn346       O355   2.010       .  S
Zn346       O362   2.000       .  S
Zn347       O350   1.943       .  S
Zn347       O352   2.010       .  S
Zn347       O354   2.024       .  S
Zn347       O358   2.009       .  S
Zn348       O350   1.936       .  S
Zn348       O353   1.991       .  S
Zn348       O356   2.003       .  S
Zn348       O359   1.983       .  S
Zn349       O350   1.956       .  S
Zn349       O357   2.032       .  S
Zn349       O360   2.009       .  S
Zn349       O361   2.033       .  S
O351        C363   1.274       .  A
O352        C364   1.273       .  A
O353        C365   1.271       .  A
O354        C363   1.275       .  A
O355        C365   1.273       .  A
O356        C364   1.271       .  A
O357        C366   1.275       .  A
O358        C367   1.274       .  A
O359        C366   1.271       .  A
O360        C367   1.275       .  A
O361        C368   1.275       .  A
O362        C368   1.273       .  A
C363       C1922   1.486       .  S
C364       C1994   1.482       .  S
C365       C2258   1.471       .  S
C366       C2066   1.476       .  S
C367       C1961   1.484       .  S
C368       C1946   1.479       .  S
Zn369       O373   1.948       .  S
Zn369       O374   2.031       .  S
Zn369       O378   2.015       .  S
Zn369       O385   2.043       .  S
Zn370       O373   1.939       .  S
Zn370       O375   1.990       .  S
Zn370       O377   1.990       .  S
Zn370       O381   2.011       .  S
Zn371       O373   1.957       .  S
Zn371       O376   2.039       .  S
Zn371       O379   2.042       .  S
Zn371       O382   2.023       .  S
Zn372       O373   1.942       .  S
Zn372       O380   2.013       .  S
Zn372       O383   2.009       .  S
Zn372       O384   2.002       .  S
O374        C386   1.276       .  A
O375        C387   1.272       .  A
O376        C388   1.277       .  A
O377        C386   1.270       .  A
O378        C388   1.275       .  A
O379        C387   1.277       .  A
O380        C389   1.274       .  A
O381        C390   1.272       .  A
O382        C389   1.275       .  A
O383        C390   1.273       .  A
O384        C391   1.274       .  A
O385        C391   1.277       .  A
C386       C1841   1.476       .  S
C387       C1826   1.486       .  S
C388       C1913   1.490       .  S
C389       C1865   1.479       .  S
C390       C1889   1.485       .  S
C391       C2162   1.492       .  S
Zn392       O396   1.949       .  S
Zn392       O397   2.027       .  S
Zn392       O401   2.022       .  S
Zn392       O408   2.004       .  S
Zn393       O396   1.933       .  S
Zn393       O398   1.979       .  S
Zn393       O400   1.999       .  S
Zn393       O404   2.000       .  S
Zn394       O396   1.969       .  S
Zn394       O399   2.038       .  S
Zn394       O402   2.047       .  S
Zn394       O405   2.061       .  S
Zn395       O396   1.942       .  S
Zn395       O403   1.992       .  S
Zn395       O406   2.018       .  S
Zn395       O407   2.014       .  S
O397        C409   1.274       .  A
O398        C410   1.272       .  A
O399        C411   1.278       .  A
O400        C409   1.271       .  A
O401        C411   1.276       .  A
O402        C410   1.278       .  A
O403        C412   1.272       .  A
O404        C413   1.271       .  A
O405        C412   1.279       .  A
O406        C413   1.273       .  A
O407        C414   1.274       .  A
O408        C414   1.273       .  A
C409       C1898   1.485       .  S
C410       C1778   1.477       .  S
C411       C2474   1.493       .  S
C412       C2186   1.490   1_556  S
C413       C1802   1.482       .  S
C414       C2042   1.485       .  S
Zn415       O419   1.965       .  S
Zn415       O420   2.023       .  S
Zn415       O424   2.042       .  S
Zn415       O431   2.021       .  S
Zn416       O419   1.958       .  S
Zn416       O421   2.026       .  S
Zn416       O423   2.005       .  S
Zn416       O427   2.038       .  S
Zn417       O419   1.938       .  S
Zn417       O422   2.006       .  S
Zn417       O425   2.005       .  S
Zn417       O428   2.007       .  S
Zn418       O419   1.949       .  S
Zn418       O426   2.018       .  S
Zn418       O429   2.012       .  S
Zn418       O430   2.007       .  S
O420        C432   1.276       .  A
O421        C433   1.274       .  A
O422        C434   1.272       .  A
O423        C432   1.275       .  A
O424        C434   1.276       .  A
O425        C433   1.273       .  A
O426        C435   1.274       .  A
O427        C436   1.275       .  A
O428        C435   1.273       .  A
O429        C436   1.273       .  A
O430        C437   1.273       .  A
O431        C437   1.274       .  A
C432       C2210   1.483       .  S
C433       C1706   1.478       .  S
C434       C1673   1.492       .  S
C435       C1754   1.479       .  S
C436       C1721   1.485       .  S
C437       C1874   1.485       .  S
Zn438       O442   1.951       .  S
Zn438       O443   2.034       .  S
Zn438       O447   2.039       .  S
Zn438       O454   2.006       .  S
Zn439       O442   1.961       .  S
Zn439       O444   2.036       .  S
Zn439       O446   2.018       .  S
Zn439       O450   2.031       .  S
Zn440       O442   1.927       .  S
Zn440       O445   2.007       .  S
Zn440       O448   1.986       .  S
Zn440       O451   1.976       .  S
Zn441       O442   1.959       .  S
Zn441       O449   2.039       .  S
Zn441       O452   2.007       .  S
Zn441       O453   2.025       .  S
O443        C455   1.277       .  A
O444        C456   1.275       .  A
O445        C457   1.273       .  A
O446        C455   1.274       .  A
O447        C457   1.276       .  A
O448        C456   1.272       .  A
O449        C458   1.274       .  A
O450        C459   1.275       .  A
O451        C458   1.267       .  A
O452        C459   1.275       .  A
O453        C460   1.275       .  A
O454        C460   1.274       .  A
C455       C2786   1.486       .  S
C456       C1937   1.472       .  S
C457       C1730   1.485       .  S
C458       C1793   1.476       .  S
C459       C1634   1.489   1_554  S
C460       C1649   1.486       .  S
Zn461       O465   1.926       .  S
Zn461       O466   2.007       .  S
Zn461       O470   1.997       .  S
Zn461       O477   1.991       .  S
Zn462       O465   1.945       .  S
Zn462       O467   2.027       .  S
Zn462       O469   2.022       .  S
Zn462       O473   1.998       .  S
Zn463       O465   1.946       .  S
Zn463       O468   2.031       .  S
Zn463       O471   2.011       .  S
Zn463       O474   2.024       .  S
Zn464       O465   1.952       .  S
Zn464       O472   2.008       .  S
Zn464       O475   2.026       .  S
Zn464       O476   2.032       .  S
O466        C478   1.273       .  A
O467        C479   1.275       .  A
O468        C480   1.276       .  A
O469        C478   1.275       .  A
O470        C480   1.273       .  A
O471        C479   1.273       .  A
O472        C481   1.275       .  A
O473        C482   1.273       .  A
O474        C481   1.276       .  A
O475        C482   1.276       .  A
O476        C483   1.275       .  A
O477        C483   1.271       .  A
C478       C1745   1.481       .  S
C479       C2834   1.488       .  S
C480       C1562   1.488       .  S
C481       C3218   1.484       .  S
C482       C1601   1.486       .  S
C483       C1586   1.483       .  S
Zn484       O488   1.949       .  S
Zn484       O489   2.000       .  S
Zn484       O493   2.017       .  S
Zn484       O500   2.012       .  S
Zn485       O488   1.973       .  S
Zn485       O490   2.056       .  S
Zn485       O492   2.029       .  S
Zn485       O496   2.042       .  S
Zn486       O488   1.933       .  S
Zn486       O491   1.989       .  S
Zn486       O494   1.990       .  S
Zn486       O497   1.996       .  S
Zn487       O488   1.946       .  S
Zn487       O495   2.008       .  S
Zn487       O498   1.994       .  S
Zn487       O499   2.026       .  S
O489        C501   1.273       .  A
O490        C502   1.278       .  A
O491        C503   1.270       .  A
O492        C501   1.276       .  A
O493        C503   1.273       .  A
O494        C502   1.272       .  A
O495        C504   1.272       .  A
O496        C505   1.277       .  A
O497        C504   1.271       .  A
O498        C505   1.273       .  A
O499        C506   1.274       .  A
O500        C506   1.273       .  A
C501       C1817   1.485       .  S
C502       C2993   1.481       .  S
C503       C1610   1.484       .  S
C504       C2921   1.477       .  S
C505       C1625   1.473       .  S
C506       C1538   1.487       .  S
Zn507       O511   1.939       .  S
Zn507       O512   2.010       .  S
Zn507       O516   2.005       .  S
Zn507       O523   1.965       .  S
Zn508       O511   1.953       .  S
Zn508       O513   2.032       .  S
Zn508       O515   2.017       .  S
Zn508       O519   2.011       .  S
Zn509       O511   1.928       .  S
Zn509       O514   2.015       .  S
Zn509       O517   1.995       .  S
Zn509       O520   2.011       .  S
Zn510       O511   1.962       .  S
Zn510       O518   2.063       .  S
Zn510       O521   2.021       .  S
Zn510       O522   2.062       .  S
O512        C524   1.272       .  A
O513        C525   1.276       .  A
O514        C526   1.274       .  A
O515        C524   1.272       .  A
O516        C526   1.272       .  A
O517        C525   1.272       .  A
O518        C527   1.279       .  A
O519        C528   1.275       .  A
O520        C527   1.273       .  A
O521        C528   1.277       .  A
O522        C529   1.279       .  A
O523        C529   1.269       .  A
C524       C1514   1.487       .  S
C525       C1553   1.486       .  S
C526       C1658   1.483       .  S
C527       C2858   1.499       .  S
C528       C1466   1.486       .  S
C529       C1490   1.488   1_554  S
Zn530       O534   1.945       .  S
Zn530       O535   2.017       .  S
Zn530       O539   1.994       .  S
Zn530       O546   2.015       .  S
Zn531       O534   1.929       .  S
Zn531       O536   1.971       .  S
Zn531       O538   1.977       .  S
Zn531       O542   1.981       .  S
Zn532       O534   1.969       .  S
Zn532       O537   2.052       .  S
Zn532       O540   2.045       .  S
Zn532       O543   2.009       .  S
Zn533       O534   1.962       .  S
Zn533       O541   2.029       .  S
Zn533       O544   2.038       .  S
Zn533       O545   2.022       .  S
O535        C547   1.273       .  A
O536        C548   1.270       .  A
O537        C549   1.277       .  A
O538        C547   1.268       .  A
O539        C549   1.272       .  A
O540        C548   1.275       .  A
O541        C550   1.278       .  A
O542        C551   1.269       .  A
O543        C550   1.275       .  A
O544        C551   1.275       .  A
O545        C552   1.275       .  A
O546        C552   1.274       .  A
C547       C1442   1.472       .  S
C548       C1418   1.475       .  S
C549       C1682   1.490       .  S
C550       C1769   1.486       .  S
C551       C1481   1.487       .  S
C552       C1529   1.484       .  S
Zn553       O557   1.936       .  S
Zn553       O558   1.979       .  S
Zn553       O562   1.995       .  S
Zn553       O569   2.018       .  S
Zn554       O557   1.965       .  S
Zn554       O559   2.049       .  S
Zn554       O561   2.056       .  S
Zn554       O565   2.030       .  S
Zn555       O557   1.950       .  S
Zn555       O560   2.025       .  S
Zn555       O563   2.002       .  S
Zn555       O566   2.034       .  S
Zn556       O557   1.932       .  S
Zn556       O564   1.985       .  S
Zn556       O567   1.989       .  S
Zn556       O568   1.990       .  S
O558        C570   1.272       .  A
O559        C571   1.278       .  A
O560        C572   1.274       .  A
O561        C570   1.279       .  A
O562        C572   1.271       .  A
O563        C571   1.274       .  A
O564        C573   1.269       .  A
O565        C574   1.276       .  A
O566        C573   1.276       .  A
O567        C574   1.271       .  A
O568        C575   1.269       .  A
O569        C575   1.273       .  A
C570       C1322   1.477       .  S
C571       C1289   1.478   1_554  S
C572       C1394   1.484       .  S
C573       C1370   1.486       .  S
C574       C1970   1.485       .  S
C575       C1346   1.470       .  S
Zn576       O580   1.953       .  S
Zn576       O581   2.019       .  S
Zn576       O585   1.997       .  S
Zn576       O592   2.024       .  S
Zn577       O580   1.931       .  S
Zn577       O582   2.007       .  S
Zn577       O584   1.994       .  S
Zn577       O588   1.980       .  S
Zn578       O580   1.951       .  S
Zn578       O583   2.026       .  S
Zn578       O586   2.025       .  S
Zn578       O589   2.005       .  S
Zn579       O580   1.957       .  S
Zn579       O587   2.020       .  S
Zn579       O590   2.034       .  S
Zn579       O591   2.003       .  S
O581        C593   1.273       .  A
O582        C594   1.272       .  A
O583        C595   1.276       .  A
O584        C593   1.271       .  A
O585        C595   1.272       .  A
O586        C594   1.273       .  A
O587        C596   1.274       .  A
O588        C597   1.270       .  A
O589        C596   1.273       .  A
O590        C597   1.276       .  A
O591        C598   1.272       .  A
O592        C598   1.276       .  A
C593       C1337   1.468       .  S
C594       C1250   1.483       .  S
C595       C1265   1.482       .  S
C596       C1193   1.468       .  S
C597       C1226   1.483       .  S
C598       C3314   1.487       .  S
Zn599       O603   1.956       .  S
Zn599       O604   1.997       .  S
Zn599       O608   2.023       .  S
Zn599       O615   2.027       .  S
Zn600       O603   1.958       .  S
Zn600       O605   2.013       .  S
Zn600       O607   2.017       .  S
Zn600       O611   2.020       .  S
Zn601       O603   1.957       .  S
Zn601       O606   2.012       .  S
Zn601       O609   2.034       .  S
Zn601       O612   2.043       .  S
Zn602       O603   1.932       .  S
Zn602       O610   1.986       .  S
Zn602       O613   1.995       .  S
Zn602       O614   2.005       .  S
O604        C616   1.271       .  A
O605        C617   1.273       .  A
O606        C618   1.275       .  A
O607        C616   1.274       .  A
O608        C618   1.275       .  A
O609        C617   1.277       .  A
O610        C619   1.272       .  A
O611        C620   1.274       .  A
O612        C619   1.276       .  A
O613        C620   1.270       .  A
O614        C621   1.272       .  A
O615        C621   1.275       .  A
C616       C3410   1.483       .  S
C617       C1178   1.486   1_554  S
C618       C2873   1.485       .  S
C619       C2009   1.482   1_545  S
C620       C1361   1.481       .  S
C621       C1154   1.486       .  S
Zn622       O626   1.960       .  S
Zn622       O627   1.993       .  S
Zn622       O631   2.023       .  S
Zn622       O638   2.031       .  S
Zn623       O626   1.974       .  S
Zn623       O628   2.041       .  S
Zn623       O630   2.036       .  S
Zn623       O634   2.040       .  S
Zn624       O626   1.954       .  S
Zn624       O629   2.014       .  S
Zn624       O632   2.018       .  S
Zn624       O635   2.022       .  S
Zn625       O626   1.939       .  S
Zn625       O633   2.004       .  S
Zn625       O636   1.988       .  S
Zn625       O637   1.985       .  S
O627        C639   1.273       .  A
O628        C640   1.276       .  A
O629        C641   1.274       .  A
O630        C639   1.276       .  A
O631        C641   1.275       .  A
O632        C640   1.275       .  A
O633        C642   1.272       .  A
O634        C643   1.276       .  A
O635        C642   1.274       .  A
O636        C643   1.271       .  A
O637        C644   1.269       .  A
O638        C644   1.272       .  A
C639       C1202   1.477       .  S
C640       C1106   1.492       .  S
C641       C1130   1.485       .  S
C642       C1169   1.484       .  S
C643       C3065   1.480       .  S
C644       C3242   1.482       .  S
Zn645       O649   1.946       .  S
Zn645       O650   2.000       .  S
Zn645       O654   2.024       .  S
Zn645       O661   2.036       .  S
Zn646       O649   1.966       .  S
Zn646       O651   2.027       .  S
Zn646       O653   2.053       .  S
Zn646       O657   2.049       .  S
Zn647       O649   1.946       .  S
Zn647       O652   1.991       .  S
Zn647       O655   2.021       .  S
Zn647       O658   2.039       .  S
Zn648       O649   1.919       .  S
Zn648       O656   2.003       .  S
Zn648       O659   1.981       .  S
Zn648       O660   1.983       .  S
O650        C662   1.273       .  A
O651        C663   1.276       .  A
O652        C664   1.272       .  A
O653        C662   1.278       .  A
O654        C664   1.275       .  A
O655        C663   1.276       .  A
O656        C665   1.271       .  A
O657        C666   1.278       .  A
O658        C665   1.275       .  A
O659        C666   1.272       .  A
O660        C667   1.270       .  A
O661        C667   1.276       .  A
C662       C1145   1.482       .  S
C663       C3194   1.489   1_565  S
C664       C1274   1.481       .  S
C665       C1073   1.492       .  S
C666       C2138   1.477       .  S
C667       C1985   1.483       .  S
Zn668       O672   1.945       .  S
Zn668       O673   1.983       .  S
Zn668       O677   2.003       .  S
Zn668       O684   2.019       .  S
Zn669       O672   1.983       .  S
Zn669       O674   2.055       .  S
Zn669       O676   2.055       .  S
Zn669       O680   2.042       .  S
Zn670       O672   1.963       .  S
Zn670       O675   2.020       .  S
Zn670       O678   1.992       .  S
Zn670       O681   2.026       .  S
Zn671       O672   1.953       .  S
Zn671       O679   2.003       .  S
Zn671       O682   2.014       .  S
Zn671       O683   2.036       .  S
O673        C685   1.271       .  A
O674        C686   1.277       .  A
O675        C687   1.272       .  A
O676        C685   1.279       .  A
O677        C687   1.272       .  A
O678        C686   1.271       .  A
O679        C688   1.273       .  A
O680        C689   1.277       .  A
O681        C688   1.274       .  A
O682        C689   1.274       .  A
O683        C690   1.275       .  A
O684        C690   1.273       .  A
C685       C1850   1.482       .  S
C686       C1298   1.477       .  S
C687       C2090   1.480       .  S
C688       C1121   1.488       .  S
C689       C1049   1.492       .  S
C690       C1082   1.495       .  S
Zn691       O695   1.970       .  S
Zn691       O696   2.019       .  S
Zn691       O700   2.038       .  S
Zn691       O707   2.037       .  S
Zn692       O695   1.952       .  S
Zn692       O697   2.018   1_556  S
Zn692       O699   2.008       .  S
Zn692       O703   2.001       .  S
Zn693       O695   1.936       .  S
Zn693       O698   1.985       .  S
Zn693       O701   2.003       .  S
Zn693       O704   1.984       .  S
Zn694       O695   1.962       .  S
Zn694       O702   2.041       .  S
Zn694       O705   2.038       .  S
Zn694       O706   2.008       .  S
O696        C708   1.274       .  A
O697        C709   1.273       .  A
O698        C710   1.271       .  A
O699        C708   1.274       .  A
O700        C710   1.275       .  A
O701        C709   1.271   1_556  A
O702        C711   1.275       .  A
O703        C712   1.273       .  A
O704        C711   1.269       .  A
O705        C712   1.277       .  A
O706        C713   1.274       .  A
O707        C713   1.276       .  A
C708       C1457   1.487   1_565  S
C709       C1034   1.483       .  S
C710       C2369   1.474       .  S
C711       C2753   1.489       .  S
C712       C1001   1.489   1_565  S
C713        C986   1.478       .  S
Zn714       O718   1.945       .  S
Zn714       O719   1.993       .  S
Zn714       O723   1.999       .  S
Zn714       O730   2.002       .  S
Zn715       O718   1.951       .  S
Zn715       O720   2.021       .  S
Zn715       O722   2.030       .  S
Zn715       O726   1.999       .  S
Zn716       O718   1.936       .  S
Zn716       O721   2.019       .  S
Zn716       O724   2.010       .  S
Zn716       O727   2.002       .  S
Zn717       O718   1.962       .  S
Zn717       O725   2.053       .  S
Zn717       O728   2.036       .  S
Zn717       O729   2.015       .  S
O719        C731   1.270       .  A
O720        C732   1.274       .  A
O721        C733   1.274       .  A
O722        C731   1.274       .  A
O723        C733   1.273       .  A
O724        C732   1.274       .  A
O725        C734   1.278       .  A
O726        C735   1.273       .  A
O727        C734   1.272       .  A
O728        C735   1.278       .  A
O729        C736   1.274       .  A
O730        C736   1.272       .  A
C731       C1025   1.483       .  S
C732       C1313   1.479       .  S
C733        C953   1.481       .  S
C734        C938   1.494       .  S
C735       C2306   1.487       .  S
C736       C2618   1.483       .  S
Zn737       O741   1.962       .  S
Zn737       O742   2.037       .  S
Zn737       O746   2.015       .  S
Zn737       O753   2.030       .  S
Zn738       O741   1.954       .  S
Zn738       O743   2.016       .  S
Zn738       O745   1.997       .  S
Zn738       O749   2.029       .  S
Zn739       O741   1.963       .  S
Zn739       O744   2.045       .  S
Zn739       O747   2.018       .  S
Zn739       O750   2.044       .  S
Zn740       O741   1.943       .  S
Zn740       O748   2.008       .  S
Zn740       O751   2.013       .  S
Zn740       O752   1.990       .  S
O742        C754   1.276       .  A
O743        C755   1.274       .  A
O744        C756   1.277       .  A
O745        C754   1.272       .  A
O746        C756   1.274       .  A
O747        C755   1.275       .  A
O748        C757   1.273       .  A
O749        C758   1.274       .  A
O750        C757   1.278       .  A
O751        C758   1.272       .  A
O752        C759   1.271       .  A
O753        C759   1.275       .  A
C754        C914   1.483       .  S
C755       C1241   1.488       .  S
C756       C1058   1.494       .  S
C757        C929   1.492       .  S
C758        C890   1.491       .  S
C759       C2681   1.474       .  S
Zn760       O764   1.938       .  S
Zn760       O765   2.022       .  S
Zn760       O769   1.991       .  S
Zn760       O776   1.995       .  S
Zn761       O764   1.949       .  S
Zn761       O766   1.996       .  S
Zn761       O768   2.016       .  S
Zn761       O772   2.005       .  S
Zn762       O764   1.960       .  S
Zn762       O767   2.027       .  S
Zn762       O770   2.034       .  S
Zn762       O773   2.009       .  S
Zn763       O764   1.970       .  S
Zn763       O771   2.052       .  S
Zn763       O774   2.027       .  S
Zn763       O775   2.053       .  S
O765        C777   1.273       .  A
O766        C778   1.272       .  A
O767        C779   1.275       .  A
O768        C777   1.273       .  A
O769        C779   1.271       .  A
O770        C778   1.275       .  A
O771        C780   1.279       .  A
O772        C781   1.273       .  A
O773        C780   1.273       .  A
O774        C781   1.276       .  A
O775        C782   1.278       .  A
O776        C782   1.272       .  A
C777       C1010   1.490       .  S
C778        C905   1.488       .  S
C779       C1409   1.486       .  S
C780       C1097   1.495       .  S
C781       C1385   1.488       .  S
C782        C866   1.489   1_556  S
Zn783       O787   1.947       .  S
Zn783       O788   2.021       .  S
Zn783       O792   1.988       .  S
Zn783       O799   2.022       .  S
Zn784       O787   1.946       .  S
Zn784       O789   2.022       .  S
Zn784       O791   2.014       .  S
Zn784       O795   2.025       .  S
Zn785       O787   1.964       .  S
Zn785       O790   2.049       .  S
Zn785       O793   2.021       .  S
Zn785       O796   2.041       .  S
Zn786       O787   1.931       .  S
Zn786       O794   1.989       .  S
Zn786       O797   2.017       .  S
Zn786       O798   1.987       .  S
O788        C800   1.275       .  A
O789        C801   1.276       .  A
O790        C802   1.278       .  A
O791        C800   1.274       .  A
O792        C802   1.272       .  A
O793        C801   1.276       .  A
O794        C803   1.272       .  A
O795        C804   1.275       .  A
O796        C803   1.276       .  A
O797        C804   1.274       .  A
O798        C805   1.269       .  A
O799        C805   1.272       .  A
C800        C881   1.489       .  S
C801       C2570   1.490   1_545  S
C802        C977   1.483       .  S
C803       C1577   1.470       .  S
C804        C842   1.487       .  S
C805       C1433   1.476       .  S
Zn806       O810   1.954       .  S
Zn806       O811   2.009       .  S
Zn806       O815   2.000       .  S
Zn806       O822   2.034       .  S
Zn807       O810   1.958       .  S
Zn807       O812   2.026       .  S
Zn807       O814   2.014       .  S
Zn807       O818   2.033       .  S
Zn808       O810   1.971       .  S
Zn808       O813   2.052       .  S
Zn808       O816   2.013       .  S
Zn808       O819   2.044       .  S
Zn809       O810   1.932       .  S
Zn809       O817   1.981       .  S
Zn809       O820   2.002       .  S
Zn809       O821   1.976       .  S
O811        C823   1.274       .  A
O812        C824   1.276       .  A
O813        C825   1.278       .  A
O814        C823   1.274       .  A
O815        C825   1.272       .  A
O816        C824   1.275       .  A
O817        C826   1.271       .  A
O818        C827   1.274       .  A
O819        C826   1.276       .  A
O820        C827   1.271       .  A
O821        C828   1.269       .  A
O822        C828   1.273       .  A
C823        C962   1.483       .  S
C824       C1217   1.483       .  S
C825        C857   1.492       .  S
C826       C1697   1.473       .  S
C827        C833   1.487       .  S
C828       C1505   1.485       .  S
C829        C830   1.405       .  A
C829        C834   1.403       .  A
C829        H839   1.083       .  S
C830        C835   1.488       .  S
C830        C831   1.409       .  A
C831        C832   1.399       .  A
C831        O836   1.372       .  S
C832        C833   1.406       .  A
C832        H837   1.083       .  S
C833        C834   1.413       .  A
C834        O838   1.372       .  S
C835        C840   1.409       .  A
C835        C844   1.403       .  A
O836        H852   0.992       .  S
O838        H849   0.992       .  S
C840        C841   1.403       .  A
C840        O845   1.372       .  S
C841        C842   1.407       .  A
C841        H846   1.083       .  S
C842        C843   1.413       .  A
C843        C844   1.400       .  A
C843        O847   1.372       .  S
C844        H848   1.084       .  S
O845        H850   0.991       .  S
O847        H851   0.992       .  S
C853        C854   1.400       .  A
C853        C858   1.395       .  A
C853        H863   1.084       .  S
C854        C859   1.485       .  S
C854        C855   1.408       .  A
C855        C856   1.409       .  A
C855        O860   1.372       .  S
C856        C857   1.410       .  A
C856        H861   1.083       .  S
C857        C858   1.415       .  A
C858        O862   1.372       .  S
C859        C864   1.409       .  A
C859        C868   1.402       .  A
O860        H876   0.991       .  S
O862        H873   0.993       .  S
C864        C865   1.406       .  A
C864        O869   1.371       .  S
C865        C866   1.408       .  A
C865        H870   1.083       .  S
C866        C867   1.414       .  A
C867        C868   1.398       .  A
C867        O871   1.373   1_554  S
C868        H872   1.084       .  S
O869        H874   0.992       .  S
O871        H875   0.992       .  S
C877        C878   1.403   1_545  A
C877        C882   1.402       .  A
C877        H887   1.084       .  S
C878        C883   1.484       .  S
C878        C879   1.406       .  A
C879        C880   1.399   1_565  A
C879        O884   1.372       .  S
C880        C881   1.408       .  A
C880        H885   1.083       .  S
C881        C882   1.414       .  A
C882        O886   1.372       .  S
C883        C888   1.407       .  A
C883        C892   1.402       .  A
O884        H900   0.992       .  S
O886        H897   0.992       .  S
C888        C889   1.401       .  A
C888        O893   1.372   1_565  S
C889        C890   1.408       .  A
C889        H894   1.083       .  S
C890        C891   1.415       .  A
C891        C892   1.401       .  A
C891        O895   1.372       .  S
C892        H896   1.084       .  S
O893        H898   0.992       .  S
O895        H899   0.992       .  S
C901        C902   1.406       .  A
C901        C906   1.402       .  A
C901        H911   1.083       .  S
C902        C907   1.488       .  S
C902        C903   1.408       .  A
C903        C904   1.397       .  A
C903        O908   1.372   1_545  S
C904        C905   1.408       .  A
C904        H909   1.083       .  S
C905        C906   1.412       .  A
C906        O910   1.371       .  S
C907        C912   1.408       .  A
C907        C916   1.407   1_545  A
O908        H924   0.992       .  S
O910        H921   0.992       .  S
C912        C913   1.398   1_545  A
C912        O917   1.372       .  S
C913        C914   1.406       .  A
C913        H918   1.084       .  S
C914        C915   1.410       .  A
C915        C916   1.402       .  A
C915        O919   1.371       .  S
C916        H920   1.083       .  S
O917        H922   0.992       .  S
O919        H923   0.992       .  S
C925        C926   1.404       .  A
C925        C930   1.401       .  A
C925        H935   1.083       .  S
C926        C931   1.493       .  S
C926        C927   1.412       .  A
C927        C928   1.403       .  A
C927        O932   1.371       .  S
C928        C929   1.407       .  A
C928        H933   1.083       .  S
C929        C930   1.415       .  A
C930        O934   1.372       .  S
C931        C936   1.412       .  A
C931        C940   1.403       .  A
O932        H948   0.991       .  S
O934        H945   0.992       .  S
C936        C937   1.407       .  A
C936        O941   1.373       .  S
C937        C938   1.408       .  A
C937        H942   1.083       .  S
C938        C939   1.416       .  A
C939        C940   1.398       .  A
C939        O943   1.371       .  S
C940        H944   1.083       .  S
O941        H946   0.992       .  S
O943        H947   0.992       .  S
C949        C950   1.402       .  A
C949        C954   1.400       .  A
C949        H959   1.083       .  S
C950        C955   1.477   1_565  S
C950        C951   1.406       .  A
C951        C952   1.396       .  A
C951        O956   1.372       .  S
C952        C953   1.407       .  A
C952        H957   1.084       .  S
C953        C954   1.412       .  A
C954        O958   1.371       .  S
C955        C960   1.405       .  A
C955        C964   1.401       .  A
O956        H972   0.992       .  S
O958        H969   0.992       .  S
C960        C961   1.399       .  A
C960        O965   1.372       .  S
C961        C962   1.407       .  A
C961        H966   1.083       .  S
C962        C963   1.413       .  A
C963        C964   1.398       .  A
C963        O967   1.372       .  S
C964        H968   1.084       .  S
O965        H970   0.991       .  S
O967        H971   0.992       .  S
C973        C974   1.398       .  A
C973        C978   1.395       .  A
C973        H983   1.084       .  S
C974        C979   1.476   1_545  S
C974        C975   1.407   1_545  A
C975        C976   1.406   1_565  A
C975        O980   1.371       .  S
C976        C977   1.407       .  A
C976        H981   1.083       .  S
C977        C978   1.413       .  A
C978        O982   1.373       .  S
C979        C984   1.405       .  A
C979        C988   1.403   1_565  A
O980        H996   0.992       .  S
O982        H993   0.992       .  S
C984        C985   1.398       .  A
C984        O989   1.372       .  S
C985        C986   1.404       .  A
C985        H990   1.084       .  S
C986        C987   1.410       .  A
C987        C988   1.404   1_565  A
C987        O991   1.372   1_565  S
C988        H992   1.084       .  S
O989        H994   0.992       .  S
O991        H995   0.992       .  S
C997        C998   1.404       .  A
C997       C1002   1.402       .  A
C997       H1007   1.084       .  S
C998       C1003   1.483       .  S
C998        C999   1.405       .  A
C999       C1000   1.399       .  A
C999       O1004   1.372       .  S
C1000      C1001   1.410       .  A
C1000      H1005   1.083       .  S
C1001      C1002   1.412       .  A
C1002      O1006   1.371   1_545  S
C1003      C1008   1.406       .  A
C1003      C1012   1.403       .  A
O1004      H1020   0.992       .  S
O1006      H1017   0.992       .  S
C1008      C1009   1.398       .  A
C1008      O1013   1.372       .  S
C1009      C1010   1.408       .  A
C1009      H1014   1.083       .  S
C1010      C1011   1.415       .  A
C1011      C1012   1.403       .  A
C1011      O1015   1.372       .  S
C1012      H1016   1.084       .  S
O1013      H1018   0.992   1_545  S
O1015      H1019   0.992       .  S
C1021      C1022   1.405       .  A
C1021      C1026   1.401       .  A
C1021      H1031   1.084       .  S
C1022      C1027   1.484       .  S
C1022      C1023   1.407       .  A
C1023      C1024   1.400       .  A
C1023      O1028   1.373       .  S
C1024      C1025   1.408       .  A
C1024      H1029   1.084       .  S
C1025      C1026   1.410       .  A
C1026      O1030   1.371       .  S
C1027      C1032   1.410       .  A
C1027      C1036   1.403       .  A
O1028      H1044   0.992       .  S
O1030      H1041   0.992       .  S
C1032      C1033   1.400       .  A
C1032      O1037   1.372       .  S
C1033      C1034   1.406       .  A
C1033      H1038   1.083       .  S
C1034      C1035   1.412       .  A
C1035      C1036   1.398       .  A
C1035      O1039   1.371       .  S
C1036      H1040   1.084       .  S
O1037      H1042   0.992       .  S
O1039      H1043   0.992       .  S
C1045      C1046   1.403       .  A
C1045      C1050   1.401       .  A
C1045      H1055   1.084       .  S
C1046      C1051   1.491       .  S
C1046      C1047   1.410       .  A
C1047      C1048   1.406       .  A
C1047      O1052   1.373       .  S
C1048      C1049   1.408       .  A
C1048      H1053   1.083       .  S
C1049      C1050   1.414       .  A
C1050      O1054   1.372       .  S
C1051      C1056   1.409       .  A
C1051      C1060   1.406       .  A
O1052      H1068   0.992       .  S
O1054      H1065   0.992       .  S
C1056      C1057   1.400       .  A
C1056      O1061   1.371       .  S
C1057      C1058   1.409       .  A
C1057      H1062   1.083       .  S
C1058      C1059   1.414       .  A
C1059      C1060   1.404       .  A
C1059      O1063   1.371       .  S
C1060      H1064   1.084       .  S
O1061      H1066   0.992       .  S
O1063      H1067   0.992       .  S
C1069      C1070   1.404       .  A
C1069      C1074   1.403       .  A
C1069      H1079   1.084       .  S
C1070      C1075   1.487       .  S
C1070      C1071   1.406       .  A
C1071      C1072   1.403       .  A
C1071      O1076   1.373       .  S
C1072      C1073   1.410       .  A
C1072      H1077   1.083       .  S
C1073      C1074   1.412       .  A
C1074      O1078   1.371       .  S
C1075      C1080   1.407       .  A
C1075      C1084   1.403       .  A
O1076      H1092   0.992       .  S
O1078      H1089   0.992       .  S
C1080      C1081   1.403       .  A
C1080      O1085   1.372       .  S
C1081      C1082   1.409       .  A
C1081      H1086   1.083       .  S
C1082      C1083   1.415       .  A
C1083      C1084   1.404       .  A
C1083      O1087   1.371       .  S
C1084      H1088   1.084       .  S
O1085      H1090   0.992       .  S
O1087      H1091   0.992       .  S
C1093      C1094   1.399       .  A
C1093      C1098   1.400       .  A
C1093      H1103   1.084       .  S
C1094      C1099   1.484       .  S
C1094      C1095   1.407       .  A
C1095      C1096   1.405       .  A
C1095      O1100   1.372       .  S
C1096      C1097   1.409       .  A
C1096      H1101   1.083       .  S
C1097      C1098   1.418       .  A
C1098      O1102   1.371       .  S
C1099      C1104   1.406       .  A
C1099      C1108   1.403       .  A
O1100      H1116   0.992       .  S
O1102      H1113   0.992       .  S
C1104      C1105   1.399       .  A
C1104      O1109   1.372       .  S
C1105      C1106   1.408       .  A
C1105      H1110   1.083       .  S
C1106      C1107   1.415       .  A
C1107      C1108   1.406       .  A
C1107      O1111   1.371       .  S
C1108      H1112   1.083       .  S
O1109      H1114   0.992       .  S
O1111      H1115   0.992       .  S
C1117      C1118   1.404       .  A
C1117      C1122   1.404       .  A
C1117      H1127   1.083       .  S
C1118      C1123   1.482   1_565  S
C1118      C1119   1.406       .  A
C1119      C1120   1.395       .  A
C1119      O1124   1.372       .  S
C1120      C1121   1.407       .  A
C1120      H1125   1.083       .  S
C1121      C1122   1.414       .  A
C1122      O1126   1.372       .  S
C1123      C1128   1.406       .  A
C1123      C1132   1.403       .  A
O1124      H1140   0.992       .  S
O1126      H1137   0.992       .  S
C1128      C1129   1.402       .  A
C1128      O1133   1.372       .  S
C1129      C1130   1.408       .  A
C1129      H1134   1.083       .  S
C1130      C1131   1.412       .  A
C1131      C1132   1.398       .  A
C1131      O1135   1.372       .  S
C1132      H1136   1.084       .  S
O1133      H1138   0.991       .  S
O1135      H1139   0.992       .  S
C1141      C1142   1.404       .  A
C1141      C1146   1.407       .  A
C1141      H1151   1.083       .  S
C1142      C1147   1.478   1_565  S
C1142      C1143   1.404       .  A
C1143      C1144   1.396       .  A
C1143      O1148   1.372   1_565  S
C1144      C1145   1.406       .  A
C1144      H1149   1.084       .  S
C1145      C1146   1.411       .  A
C1146      O1150   1.371       .  S
C1147      C1152   1.406       .  A
C1147      C1156   1.400   1_545  A
O1148      H1164   0.992       .  S
O1150      H1161   0.991       .  S
C1152      C1153   1.402       .  A
C1152      O1157   1.372       .  S
C1153      C1154   1.407       .  A
C1153      H1158   1.083       .  S
C1154      C1155   1.414   1_545  A
C1155      C1156   1.400       .  A
C1155      O1159   1.371       .  S
C1156      H1160   1.084       .  S
O1157      H1162   0.992       .  S
O1159      H1163   0.992       .  S
C1165      C1166   1.403       .  A
C1165      C1170   1.399       .  A
C1165      H1175   1.083       .  S
C1166      C1171   1.487       .  S
C1166      C1167   1.410       .  A
C1167      C1168   1.400       .  A
C1167      O1172   1.371       .  S
C1168      C1169   1.405       .  A
C1168      H1173   1.083       .  S
C1169      C1170   1.413       .  A
C1170      O1174   1.372       .  S
C1171      C1176   1.410       .  A
C1171      C1180   1.403       .  A
O1172      H1188   0.992       .  S
O1174      H1185   0.993       .  S
C1176      C1177   1.401       .  A
C1176      O1181   1.372       .  S
C1177      C1178   1.405       .  A
C1177      H1182   1.083       .  S
C1178      C1179   1.414       .  A
C1179      C1180   1.401       .  A
C1179      O1183   1.372   1_556  S
C1180      H1184   1.084       .  S
O1181      H1186   0.991       .  S
O1183      H1187   0.992       .  S
C1189      C1190   1.404       .  A
C1189      C1194   1.401       .  A
C1189      H1199   1.084       .  S
C1190      C1195   1.475       .  S
C1190      C1191   1.406       .  A
C1191      C1192   1.397       .  A
C1191      O1196   1.372       .  S
C1192      C1193   1.402       .  A
C1192      H1197   1.084       .  S
C1193      C1194   1.407       .  A
C1194      O1198   1.372       .  S
C1195      C1200   1.405       .  A
C1195      C1204   1.403       .  A
O1196      H1212   0.992       .  S
O1198      H1209   0.991       .  S
C1200      C1201   1.394       .  A
C1200      O1205   1.372       .  S
C1201      C1202   1.405       .  A
C1201      H1206   1.084       .  S
C1202      C1203   1.410       .  A
C1203      C1204   1.404       .  A
C1203      O1207   1.371       .  S
C1204      H1208   1.083       .  S
O1205      H1210   0.992       .  S
O1207      H1211   0.991       .  S
C1213      C1214   1.401       .  A
C1213      C1218   1.400       .  A
C1213      H1223   1.084       .  S
C1214      C1219   1.471       .  S
C1214      C1215   1.403       .  A
C1215      C1216   1.397       .  A
C1215      O1220   1.371       .  S
C1216      C1217   1.407       .  A
C1216      H1221   1.083       .  S
C1217      C1218   1.413       .  A
C1218      O1222   1.371       .  S
C1219      C1224   1.404       .  A
C1219      C1228   1.397       .  A
O1220      H1236   0.992       .  S
O1222      H1233   0.992       .  S
C1224      C1225   1.403       .  A
C1224      O1229   1.371       .  S
C1225      C1226   1.409       .  A
C1225      H1230   1.083       .  S
C1226      C1227   1.415       .  A
C1227      C1228   1.393       .  A
C1227      O1231   1.372       .  S
C1228      H1232   1.084       .  S
O1229      H1234   0.991       .  S
O1231      H1235   0.992       .  S
C1237      C1238   1.402   1_545  A
C1237      C1242   1.401   1_545  A
C1237      H1247   1.084       .  S
C1238      C1243   1.481   1_565  S
C1238      C1239   1.406       .  A
C1239      C1240   1.399       .  A
C1239      O1244   1.372       .  S
C1240      C1241   1.408       .  A
C1240      H1245   1.083       .  S
C1241      C1242   1.415       .  A
C1242      O1246   1.372       .  S
C1243      C1248   1.406       .  A
C1243      C1252   1.404       .  A
O1244      H1260   0.992       .  S
O1246      H1257   0.992   1_565  S
C1248      C1249   1.399       .  A
C1248      O1253   1.372       .  S
C1249      C1250   1.406       .  A
C1249      H1254   1.084       .  S
C1250      C1251   1.411       .  A
C1251      C1252   1.402       .  A
C1251      O1255   1.372       .  S
C1252      H1256   1.084   1_545  S
O1253      H1258   0.992       .  S
O1255      H1259   0.992       .  S
C1261      C1262   1.400       .  A
C1261      C1266   1.398       .  A
C1261      H1271   1.084       .  S
C1262      C1267   1.476       .  S
C1262      C1263   1.407       .  A
C1263      C1264   1.398       .  A
C1263      O1268   1.372       .  S
C1264      C1265   1.406       .  A
C1264      H1269   1.083       .  S
C1265      C1266   1.415       .  A
C1266      O1270   1.372       .  S
C1267      C1272   1.408       .  A
C1267      C1276   1.399       .  A
O1268      H1284   0.992   1_545  S
O1270      H1281   0.992       .  S
C1272      C1273   1.401   1_545  A
C1272      O1277   1.372       .  S
C1273      C1274   1.406       .  A
C1273      H1278   1.083       .  S
C1274      C1275   1.414       .  A
C1275      C1276   1.395   1_565  A
C1275      O1279   1.372       .  S
C1276      H1280   1.084       .  S
O1277      H1282   0.991       .  S
O1279      H1283   0.992       .  S
C1285      C1286   1.403       .  A
C1285      C1290   1.399       .  A
C1285      H1295   1.083       .  S
C1286      C1291   1.486       .  S
C1286      C1287   1.411       .  A
C1287      C1288   1.405       .  A
C1287      O1292   1.371       .  S
C1288      C1289   1.404       .  A
C1288      H1293   1.084   1_556  S
C1289      C1290   1.409       .  A
C1290      O1294   1.372       .  S
C1291      C1296   1.411       .  A
C1291      C1300   1.403       .  A
O1292      H1308   0.992       .  S
O1294      H1305   0.992       .  S
C1296      C1297   1.405       .  A
C1296      O1301   1.372       .  S
C1297      C1298   1.403       .  A
C1297      H1302   1.084       .  S
C1298      C1299   1.410       .  A
C1299      C1300   1.399       .  A
C1299      O1303   1.372       .  S
C1300      H1304   1.084       .  S
O1301      H1306   0.992       .  S
O1303      H1307   0.992       .  S
C1309      C1310   1.401       .  A
C1309      C1314   1.398       .  A
C1309      H1319   1.084       .  S
C1310      C1315   1.477       .  S
C1310      C1311   1.407       .  A
C1311      C1312   1.402       .  A
C1311      O1316   1.372       .  S
C1312      C1313   1.406       .  A
C1312      H1317   1.084       .  S
C1313      C1314   1.411       .  A
C1314      O1318   1.372       .  S
C1315      C1320   1.405       .  A
C1315      C1324   1.406       .  A
O1316      H1332   0.991       .  S
O1318      H1329   0.992       .  S
C1320      C1321   1.394       .  A
C1320      O1325   1.372       .  S
C1321      C1322   1.405       .  A
C1321      H1326   1.084       .  S
C1322      C1323   1.409       .  A
C1323      C1324   1.405       .  A
C1323      O1327   1.371       .  S
C1324      H1328   1.083       .  S
O1325      H1330   0.991       .  S
O1327      H1331   0.992       .  S
C1333      C1334   1.404       .  A
C1333      C1338   1.397       .  A
C1333      H1343   1.083       .  S
C1334      C1339   1.482   1_545  S
C1334      C1335   1.411       .  A
C1335      C1336   1.399       .  A
C1335      O1340   1.372   1_545  S
C1336      C1337   1.402       .  A
C1336      H1341   1.084       .  S
C1337      C1338   1.406       .  A
C1338      O1342   1.372       .  S
C1339      C1344   1.412       .  A
C1339      C1348   1.402       .  A
O1340      H1356   0.992       .  S
O1342      H1353   0.992       .  S
C1344      C1345   1.401       .  A
C1344      O1349   1.372       .  S
C1345      C1346   1.401       .  A
C1345      H1350   1.084       .  S
C1346      C1347   1.410       .  A
C1347      C1348   1.395       .  A
C1347      O1351   1.373       .  S
C1348      H1352   1.083       .  S
O1349      H1354   0.992       .  S
O1351      H1355   0.991       .  S
C1357      C1358   1.399       .  A
C1357      C1362   1.398       .  A
C1357      H1367   1.084       .  S
C1358      C1363   1.474       .  S
C1358      C1359   1.405   1_565  A
C1359      C1360   1.399       .  A
C1359      O1364   1.372       .  S
C1360      C1361   1.406       .  A
C1360      H1365   1.083       .  S
C1361      C1362   1.415   1_545  A
C1362      O1366   1.372       .  S
C1363      C1368   1.406       .  A
C1363      C1372   1.398       .  A
O1364      H1380   0.991       .  S
O1366      H1377   0.992       .  S
C1368      C1369   1.399       .  A
C1368      O1373   1.372       .  S
C1369      C1370   1.406       .  A
C1369      H1374   1.083       .  S
C1370      C1371   1.418       .  A
C1371      C1372   1.398       .  A
C1371      O1375   1.372       .  S
C1372      H1376   1.084       .  S
O1373      H1378   0.992       .  S
O1375      H1379   0.992       .  S
C1381      C1382   1.400       .  A
C1381      C1386   1.400       .  A
C1381      H1391   1.084   1_545  S
C1382      C1387   1.477   1_546  S
C1382      C1383   1.405   1_556  A
C1383      C1384   1.399   1_554  A
C1383      O1388   1.372       .  S
C1384      C1385   1.408       .  A
C1384      H1389   1.083       .  S
C1385      C1386   1.416       .  A
C1386      O1390   1.372       .  S
C1387      C1392   1.404       .  A
C1387      C1396   1.402       .  A
O1388      H1404   0.992       .  S
O1390      H1401   0.992       .  S
C1392      C1393   1.398       .  A
C1392      O1397   1.372       .  S
C1393      C1394   1.409       .  A
C1393      H1398   1.083       .  S
C1394      C1395   1.412       .  A
C1395      C1396   1.401       .  A
C1395      O1399   1.371       .  S
C1396      H1400   1.084   1_564  S
O1397      H1402   0.992       .  S
O1399      H1403   0.992   1_554  S
C1405      C1406   1.398       .  A
C1405      C1410   1.394       .  A
C1405      H1415   1.084       .  S
C1406      C1411   1.470       .  S
C1406      C1407   1.403       .  A
C1407      C1408   1.402       .  A
C1407      O1412   1.371       .  S
C1408      C1409   1.410       .  A
C1408      H1413   1.083       .  S
C1409      C1410   1.416       .  A
C1410      O1414   1.372       .  S
C1411      C1416   1.402       .  A
C1411      C1420   1.404       .  A
O1412      H1428   0.992       .  S
O1414      H1425   0.992       .  S
C1416      C1417   1.391       .  A
C1416      O1421   1.373       .  S
C1417      C1418   1.404       .  A
C1417      H1422   1.084       .  S
C1418      C1419   1.410       .  A
C1419      C1420   1.406       .  A
C1419      O1423   1.371       .  S
C1420      H1424   1.083       .  S
O1421      H1426   0.992       .  S
O1423      H1427   0.992       .  S
C1429      C1430   1.403       .  A
C1429      C1434   1.400       .  A
C1429      H1439   1.084       .  S
C1430      C1435   1.473       .  S
C1430      C1431   1.404       .  A
C1431      C1432   1.395       .  A
C1431      O1436   1.372       .  S
C1432      C1433   1.406       .  A
C1432      H1437   1.084       .  S
C1433      C1434   1.410       .  A
C1434      O1438   1.371       .  S
C1435      C1440   1.405       .  A
C1435      C1444   1.402       .  A
O1436      H1452   0.991       .  S
O1438      H1449   0.992       .  S
C1440      C1441   1.398       .  A
C1440      O1445   1.372       .  S
C1441      C1442   1.406       .  A
C1441      H1446   1.084       .  S
C1442      C1443   1.408       .  A
C1443      C1444   1.396       .  A
C1443      O1447   1.372       .  S
C1444      H1448   1.084       .  S
O1445      H1450   0.991       .  S
O1447      H1451   0.991       .  S
C1453      C1454   1.401   1_556  A
C1453      C1458   1.400       .  A
C1453      H1463   1.084       .  S
C1454      C1459   1.477       .  S
C1454      C1455   1.405       .  A
C1455      C1456   1.397       .  A
C1455      O1460   1.372       .  S
C1456      C1457   1.408   1_554  A
C1456      H1461   1.083       .  S
C1457      C1458   1.415       .  A
C1458      O1462   1.371       .  S
C1459      C1464   1.406       .  A
C1459      C1468   1.401       .  A
O1460      H1476   0.992       .  S
O1462      H1473   0.992   1_545  S
C1464      C1465   1.397       .  A
C1464      O1469   1.372   1_554  S
C1465      C1466   1.407       .  A
C1465      H1470   1.083   1_554  S
C1466      C1467   1.416       .  A
C1467      C1468   1.401       .  A
C1467      O1471   1.371       .  S
C1468      H1472   1.084       .  S
O1469      H1474   0.992       .  S
O1471      H1475   0.992       .  S
C1477      C1478   1.403       .  A
C1477      C1482   1.402       .  A
C1477      H1487   1.084       .  S
C1478      C1483   1.476       .  S
C1478      C1479   1.402       .  A
C1479      C1480   1.396       .  A
C1479      O1484   1.372       .  S
C1480      C1481   1.410       .  A
C1480      H1485   1.083       .  S
C1481      C1482   1.413       .  A
C1482      O1486   1.371       .  S
C1483      C1488   1.400       .  A
C1483      C1492   1.405       .  A
O1484      H1500   0.992       .  S
O1486      H1497   0.992       .  S
C1488      C1489   1.393       .  A
C1488      O1493   1.372       .  S
C1489      C1490   1.411       .  A
C1489      H1494   1.083   1_556  S
C1490      C1491   1.412       .  A
C1491      C1492   1.405       .  A
C1491      O1495   1.371       .  S
C1492      H1496   1.083       .  S
O1493      H1498   0.991       .  S
O1495      H1499   0.992       .  S
C1501      C1502   1.403       .  A
C1501      C1506   1.405       .  A
C1501      H1511   1.083       .  S
C1502      C1507   1.475       .  S
C1502      C1503   1.402       .  A
C1503      C1504   1.393       .  A
C1503      O1508   1.373       .  S
C1504      C1505   1.408       .  A
C1504      H1509   1.083       .  S
C1505      C1506   1.414       .  A
C1506      O1510   1.371       .  S
C1507      C1512   1.406       .  A
C1507      C1516   1.399       .  A
O1508      H1524   0.992       .  S
O1510      H1521   0.992       .  S
C1512      C1513   1.398       .  A
C1512      O1517   1.372       .  S
C1513      C1514   1.407       .  A
C1513      H1518   1.083       .  S
C1514      C1515   1.416       .  A
C1515      C1516   1.401       .  A
C1515      O1519   1.371       .  S
C1516      H1520   1.084       .  S
O1517      H1522   0.992       .  S
O1519      H1523   0.992       .  S
C1525      C1526   1.404       .  A
C1525      C1530   1.401       .  A
C1525      H1535   1.083       .  S
C1526      C1531   1.486       .  S
C1526      C1527   1.409       .  A
C1527      C1528   1.400       .  A
C1527      O1532   1.372       .  S
C1528      C1529   1.406       .  A
C1528      H1533   1.083       .  S
C1529      C1530   1.412       .  A
C1530      O1534   1.372       .  S
C1531      C1536   1.408       .  A
C1531      C1540   1.404       .  A
O1532      H1548   0.992       .  S
O1534      H1545   0.991       .  S
C1536      C1537   1.401       .  A
C1536      O1541   1.372       .  S
C1537      C1538   1.407       .  A
C1537      H1542   1.083       .  S
C1538      C1539   1.412       .  A
C1539      C1540   1.401       .  A
C1539      O1543   1.371       .  S
C1540      H1544   1.084       .  S
O1541      H1546   0.991       .  S
O1543      H1547   0.992       .  S
C1549      C1550   1.401       .  A
C1549      C1554   1.395       .  A
C1549      H1559   1.084       .  S
C1550      C1555   1.482       .  S
C1550      C1551   1.408       .  A
C1551      C1552   1.404       .  A
C1551      O1556   1.373       .  S
C1552      C1553   1.408       .  A
C1552      H1557   1.083       .  S
C1553      C1554   1.414       .  A
C1554      O1558   1.372       .  S
C1555      C1560   1.407       .  A
C1555      C1564   1.403       .  A
O1556      H1572   0.992       .  S
O1558      H1569   0.992       .  S
C1560      C1561   1.398       .  A
C1560      O1565   1.372       .  S
C1561      C1562   1.409       .  A
C1561      H1566   1.083       .  S
C1562      C1563   1.413       .  A
C1563      C1564   1.400       .  A
C1563      O1567   1.371       .  S
C1564      H1568   1.084       .  S
O1565      H1570   0.992       .  S
O1567      H1571   0.992       .  S
C1573      C1574   1.401       .  A
C1573      C1578   1.395       .  A
C1573      H1583   1.084       .  S
C1574      C1579   1.477       .  S
C1574      C1575   1.410       .  A
C1575      C1576   1.402       .  A
C1575      O1580   1.371       .  S
C1576      C1577   1.402       .  A
C1576      H1581   1.084       .  S
C1577      C1578   1.408       .  A
C1578      O1582   1.372       .  S
C1579      C1584   1.407       .  A
C1579      C1588   1.399       .  A
O1580      H1596   0.991       .  S
O1582      H1593   0.992       .  S
C1584      C1585   1.404       .  A
C1584      O1589   1.372       .  S
C1585      C1586   1.407       .  A
C1585      H1590   1.083       .  S
C1586      C1587   1.414       .  A
C1587      C1588   1.394       .  A
C1587      O1591   1.372       .  S
C1588      H1592   1.084       .  S
O1589      H1594   0.991       .  S
O1591      H1595   0.992       .  S
C1597      C1598   1.403       .  A
C1597      C1602   1.400       .  A
C1597      H1607   1.083       .  S
C1598      C1603   1.478       .  S
C1598      C1599   1.405       .  A
C1599      C1600   1.396       .  A
C1599      O1604   1.372       .  S
C1600      C1601   1.409       .  A
C1600      H1605   1.083       .  S
C1601      C1602   1.413       .  A
C1602      O1606   1.371       .  S
C1603      C1608   1.405       .  A
C1603      C1612   1.403       .  A
O1604      H1620   0.992       .  S
O1606      H1617   0.992       .  S
C1608      C1609   1.397       .  A
C1608      O1613   1.372       .  S
C1609      C1610   1.408       .  A
C1609      H1614   1.083       .  S
C1610      C1611   1.413       .  A
C1611      C1612   1.399       .  A
C1611      O1615   1.372       .  S
C1612      H1616   1.084       .  S
O1613      H1618   0.991       .  S
O1615      H1619   0.992       .  S
C1621      C1622   1.403       .  A
C1621      C1626   1.403       .  A
C1621      H1631   1.084       .  S
C1622      C1627   1.475       .  S
C1622      C1623   1.405       .  A
C1623      C1624   1.398       .  A
C1623      O1628   1.372       .  S
C1624      C1625   1.404       .  A
C1624      H1629   1.084       .  S
C1625      C1626   1.408       .  A
C1626      O1630   1.372       .  S
C1627      C1632   1.404       .  A
C1627      C1636   1.400       .  A
O1628      H1644   0.991       .  S
O1630      H1641   0.992       .  S
C1632      C1633   1.395       .  A
C1632      O1637   1.373       .  S
C1633      C1634   1.407       .  A
C1633      H1638   1.083       .  S
C1634      C1635   1.416       .  A
C1635      C1636   1.405       .  A
C1635      O1639   1.371   1_556  S
C1636      H1640   1.083       .  S
O1637      H1642   0.991       .  S
O1639      H1643   0.992       .  S
C1645      C1646   1.403       .  A
C1645      C1650   1.401       .  A
C1645      H1655   1.084       .  S
C1646      C1651   1.479       .  S
C1646      C1647   1.405       .  A
C1647      C1648   1.398       .  A
C1647      O1652   1.373       .  S
C1648      C1649   1.408       .  A
C1648      H1653   1.083       .  S
C1649      C1650   1.413       .  A
C1650      O1654   1.371       .  S
C1651      C1656   1.407       .  A
C1651      C1660   1.401       .  A
O1652      H1668   0.992       .  S
O1654      H1665   0.992       .  S
C1656      C1657   1.397       .  A
C1656      O1661   1.371       .  S
C1657      C1658   1.405       .  A
C1657      H1662   1.083       .  S
C1658      C1659   1.415       .  A
C1659      C1660   1.400       .  A
C1659      O1663   1.372       .  S
C1660      H1664   1.084       .  S
O1661      H1666   0.992       .  S
O1663      H1667   0.992       .  S
C1669      C1670   1.400       .  A
C1669      C1674   1.400       .  A
C1669      H1679   1.084       .  S
C1670      C1675   1.480       .  S
C1670      C1671   1.405       .  A
C1671      C1672   1.404       .  A
C1671      O1676   1.371       .  S
C1672      C1673   1.409       .  A
C1672      H1677   1.083       .  S
C1673      C1674   1.416       .  A
C1674      O1678   1.372       .  S
C1675      C1680   1.404       .  A
C1675      C1684   1.403       .  A
O1676      H1692   0.992       .  S
O1678      H1689   0.992       .  S
C1680      C1681   1.395       .  A
C1680      O1685   1.372       .  S
C1681      C1682   1.408       .  A
C1681      H1686   1.083       .  S
C1682      C1683   1.414       .  A
C1683      C1684   1.408       .  A
C1683      O1687   1.371       .  S
C1684      H1688   1.083       .  S
O1685      H1690   0.992       .  S
O1687      H1691   0.992       .  S
C1693      C1694   1.402       .  A
C1693      C1698   1.396       .  A
C1693      H1703   1.083       .  S
C1694      C1699   1.483       .  S
C1694      C1695   1.411       .  A
C1695      C1696   1.402       .  A
C1695      O1700   1.371       .  S
C1696      C1697   1.402       .  A
C1696      H1701   1.084       .  S
C1697      C1698   1.410       .  A
C1698      O1702   1.372       .  S
C1699      C1704   1.409       .  A
C1699      C1708   1.403       .  A
O1700      H1716   0.992       .  S
O1702      H1713   0.992       .  S
C1704      C1705   1.403       .  A
C1704      O1709   1.372       .  S
C1705      C1706   1.405       .  A
C1705      H1710   1.084       .  S
C1706      C1707   1.410       .  A
C1707      C1708   1.397       .  A
C1707      O1711   1.372       .  S
C1708      H1712   1.084       .  S
O1709      H1714   0.991       .  S
O1711      H1715   0.992       .  S
C1717      C1718   1.406       .  A
C1717      C1722   1.404       .  A
C1717      H1727   1.083       .  S
C1718      C1723   1.488       .  S
C1718      C1719   1.408       .  A
C1719      C1720   1.399       .  A
C1719      O1724   1.372       .  S
C1720      C1721   1.406       .  A
C1720      H1725   1.084       .  S
C1721      C1722   1.411       .  A
C1722      O1726   1.371       .  S
C1723      C1728   1.407       .  A
C1723      C1732   1.406       .  A
O1724      H1740   0.992       .  S
O1726      H1737   0.992       .  S
C1728      C1729   1.402       .  A
C1728      O1733   1.372       .  S
C1729      C1730   1.408       .  A
C1729      H1734   1.084       .  S
C1730      C1731   1.409       .  A
C1731      C1732   1.402       .  A
C1731      O1735   1.371       .  S
C1732      H1736   1.084       .  S
O1733      H1738   0.991       .  S
O1735      H1739   0.992       .  S
C1741      C1742   1.402       .  A
C1741      C1746   1.398       .  A
C1741      H1751   1.084       .  S
C1742      C1747   1.478       .  S
C1742      C1743   1.406       .  A
C1743      C1744   1.401       .  A
C1743      O1748   1.372       .  S
C1744      C1745   1.407       .  A
C1744      H1749   1.083       .  S
C1745      C1746   1.411       .  A
C1746      O1750   1.371       .  S
C1747      C1752   1.407       .  A
C1747      C1756   1.403       .  A
O1748      H1764   0.992       .  S
O1750      H1761   0.992       .  S
C1752      C1753   1.399       .  A
C1752      O1757   1.372       .  S
C1753      C1754   1.406       .  A
C1753      H1758   1.084       .  S
C1754      C1755   1.410       .  A
C1755      C1756   1.399       .  A
C1755      O1759   1.372       .  S
C1756      H1760   1.084       .  S
O1757      H1762   0.992       .  S
O1759      H1763   0.992       .  S
C1765      C1766   1.399       .  A
C1765      C1770   1.397       .  A
C1765      H1775   1.084       .  S
C1766      C1771   1.474       .  S
C1766      C1767   1.406       .  A
C1767      C1768   1.401       .  A
C1767      O1772   1.372       .  S
C1768      C1769   1.408       .  A
C1768      H1773   1.083       .  S
C1769      C1770   1.415       .  A
C1770      O1774   1.372       .  S
C1771      C1776   1.407       .  A
C1771      C1780   1.399       .  A
O1772      H1788   0.991       .  S
O1774      H1785   0.992       .  S
C1776      C1777   1.404       .  A
C1776      O1781   1.371       .  S
C1777      C1778   1.406       .  A
C1777      H1782   1.083       .  S
C1778      C1779   1.411       .  A
C1779      C1780   1.392       .  A
C1779      O1783   1.372       .  S
C1780      H1784   1.084       .  S
O1781      H1786   0.992       .  S
O1783      H1787   0.992       .  S
C1789      C1790   1.400   1_554  A
C1789      C1794   1.396       .  A
C1789      H1799   1.084       .  S
C1790      C1795   1.479       .  S
C1790      C1791   1.409       .  A
C1791      C1792   1.403   1_556  A
C1791      O1796   1.372       .  S
C1792      C1793   1.403       .  A
C1792      H1797   1.083       .  S
C1793      C1794   1.412       .  A
C1794      O1798   1.373       .  S
C1795      C1800   1.406       .  A
C1795      C1804   1.402       .  A
O1796      H1812   0.991       .  S
O1798      H1809   0.991       .  S
C1800      C1801   1.399       .  A
C1800      O1805   1.372       .  S
C1801      C1802   1.407       .  A
C1801      H1806   1.083       .  S
C1802      C1803   1.412       .  A
C1803      C1804   1.399       .  A
C1803      O1807   1.372       .  S
C1804      H1808   1.084   1_556  S
O1805      H1810   0.992       .  S
O1807      H1811   0.992   1_556  S
C1813      C1814   1.400       .  A
C1813      C1818   1.396       .  A
C1813      H1823   1.084       .  S
C1814      C1819   1.478       .  S
C1814      C1815   1.407       .  A
C1815      C1816   1.403       .  A
C1815      O1820   1.373       .  S
C1816      C1817   1.408       .  A
C1816      H1821   1.083       .  S
C1817      C1818   1.414       .  A
C1818      O1822   1.371       .  S
C1819      C1824   1.405       .  A
C1819      C1828   1.404       .  A
O1820      H1836   0.992       .  S
O1822      H1833   0.992       .  S
C1824      C1825   1.395       .  A
C1824      O1829   1.372       .  S
C1825      C1826   1.408       .  A
C1825      H1830   1.083       .  S
C1826      C1827   1.412       .  A
C1827      C1828   1.403       .  A
C1827      O1831   1.371       .  S
C1828      H1832   1.084       .  S
O1829      H1834   0.992       .  S
O1831      H1835   0.992       .  S
C1837      C1838   1.403       .  A
C1837      C1842   1.398       .  A
C1837      H1847   1.084       .  S
C1838      C1843   1.480       .  S
C1838      C1839   1.409       .  A
C1839      C1840   1.401       .  A
C1839      O1844   1.372       .  S
C1840      C1841   1.403       .  A
C1840      H1845   1.084       .  S
C1841      C1842   1.410       .  A
C1842      O1846   1.372       .  S
C1843      C1848   1.409       .  A
C1843      C1852   1.400       .  A
O1844      H1860   0.992       .  S
O1846      H1857   0.992       .  S
C1848      C1849   1.407       .  A
C1848      O1853   1.373       .  S
C1849      C1850   1.406       .  A
C1849      H1854   1.083       .  S
C1850      C1851   1.413       .  A
C1851      C1852   1.393       .  A
C1851      O1855   1.372       .  S
C1852      H1856   1.084       .  S
O1853      H1858   0.992       .  S
O1855      H1859   0.992       .  S
C1861      C1862   1.403       .  A
C1861      C1866   1.400       .  A
C1861      H1871   1.084       .  S
C1862      C1867   1.481       .  S
C1862      C1863   1.408       .  A
C1863      C1864   1.401       .  A
C1863      O1868   1.373       .  S
C1864      C1865   1.405       .  A
C1864      H1869   1.084       .  S
C1865      C1866   1.410       .  A
C1866      O1870   1.372       .  S
C1867      C1872   1.407       .  A
C1867      C1876   1.403       .  A
O1868      H1884   0.992       .  S
O1870      H1881   0.992       .  S
C1872      C1873   1.398       .  A
C1872      O1877   1.372       .  S
C1873      C1874   1.407       .  A
C1873      H1878   1.083       .  S
C1874      C1875   1.414       .  A
C1875      C1876   1.401       .  A
C1875      O1879   1.371       .  S
C1876      H1880   1.084       .  S
O1877      H1882   0.992       .  S
O1879      H1883   0.992       .  S
C1885      C1886   1.403       .  A
C1885      C1890   1.401       .  A
C1885      H1895   1.084       .  S
C1886      C1891   1.479       .  S
C1886      C1887   1.405       .  A
C1887      C1888   1.398       .  A
C1887      O1892   1.372       .  S
C1888      C1889   1.407       .  A
C1888      H1893   1.083       .  S
C1889      C1890   1.413       .  A
C1890      O1894   1.372       .  S
C1891      C1896   1.407       .  A
C1891      C1900   1.401       .  A
O1892      H1908   0.992       .  S
O1894      H1905   0.992       .  S
C1896      C1897   1.401       .  A
C1896      O1901   1.372       .  S
C1897      C1898   1.408       .  A
C1897      H1902   1.083       .  S
C1898      C1899   1.414       .  A
C1899      C1900   1.398       .  A
C1899      O1903   1.372       .  S
C1900      H1904   1.084       .  S
O1901      H1906   0.992       .  S
O1903      H1907   0.992       .  S
C1909      C1910   1.404       .  A
C1909      C1914   1.402       .  A
C1909      H1919   1.084       .  S
C1910      C1915   1.487       .  S
C1910      C1911   1.408       .  A
C1911      C1912   1.400       .  A
C1911      O1916   1.372       .  S
C1912      C1913   1.408       .  A
C1912      H1917   1.083       .  S
C1913      C1914   1.413       .  A
C1914      O1918   1.371       .  S
C1915      C1920   1.409       .  A
C1915      C1924   1.405       .  A
O1916      H1932   0.992       .  S
O1918      H1929   0.992       .  S
C1920      C1921   1.398       .  A
C1920      O1925   1.372       .  S
C1921      C1922   1.406       .  A
C1921      H1926   1.083       .  S
C1922      C1923   1.413       .  A
C1923      C1924   1.403       .  A
C1923      O1927   1.371       .  S
C1924      H1928   1.083       .  S
O1925      H1930   0.992       .  S
O1927      H1931   0.992       .  S
C1933      C1934   1.407       .  A
C1933      C1938   1.403       .  A
C1933      H1943   1.084       .  S
C1934      C1939   1.481       .  S
C1934      C1935   1.407       .  A
C1935      C1936   1.396       .  A
C1935      O1940   1.372       .  S
C1936      C1937   1.403       .  A
C1936      H1941   1.084       .  S
C1937      C1938   1.406       .  A
C1938      O1942   1.371       .  S
C1939      C1944   1.410       .  A
C1939      C1948   1.401       .  A
O1940      H1956   0.992       .  S
O1942      H1953   0.991       .  S
C1944      C1945   1.403       .  A
C1944      O1949   1.371       .  S
C1945      C1946   1.406       .  A
C1945      H1950   1.083       .  S
C1946      C1947   1.410       .  A
C1947      C1948   1.395       .  A
C1947      O1951   1.372       .  S
C1948      H1952   1.084       .  S
O1949      H1954   0.991       .  S
O1951      H1955   0.992       .  S
C1957      C1958   1.400       .  A
C1957      C1962   1.400       .  A
C1957      H1967   1.084       .  S
C1958      C1963   1.475       .  S
C1958      C1959   1.405       .  A
C1959      C1960   1.397       .  A
C1959      O1964   1.372       .  S
C1960      C1961   1.407       .  A
C1960      H1965   1.083       .  S
C1961      C1962   1.415       .  A
C1962      O1966   1.372       .  S
C1963      C1968   1.405       .  A
C1963      C1972   1.399       .  A
O1964      H1980   0.992       .  S
O1966      H1977   0.992       .  S
C1968      C1969   1.399       .  A
C1968      O1973   1.371       .  S
C1969      C1970   1.408       .  A
C1969      H1974   1.083       .  S
C1970      C1971   1.416       .  A
C1971      C1972   1.396       .  A
C1971      O1975   1.372       .  S
C1972      H1976   1.084       .  S
O1973      H1978   0.992       .  S
O1975      H1979   0.992       .  S
C1981      C1982   1.401       .  A
C1981      C1986   1.400       .  A
C1981      H1991   1.084       .  S
C1982      C1987   1.471       .  S
C1982      C1983   1.402       .  A
C1983      C1984   1.396       .  A
C1983      O1988   1.372       .  S
C1984      C1985   1.410       .  A
C1984      H1989   1.083       .  S
C1985      C1986   1.412       .  A
C1986      O1990   1.371       .  S
C1987      C1992   1.403       .  A
C1987      C1996   1.400       .  A
O1988      H2004   0.992       .  S
O1990      H2001   0.992       .  S
C1992      C1993   1.397       .  A
C1992      O1997   1.372       .  S
C1993      C1994   1.407       .  A
C1993      H1998   1.083       .  S
C1994      C1995   1.414       .  A
C1995      C1996   1.400       .  A
C1995      O1999   1.372       .  S
C1996      H2000   1.084       .  S
O1997      H2002   0.992       .  S
O1999      H2003   0.992       .  S
C2005      C2006   1.406       .  A
C2005      C2010   1.405       .  A
C2005      H2015   1.083       .  S
C2006      C2011   1.484       .  S
C2006      C2007   1.408   1_556  A
C2007      C2008   1.394       .  A
C2007      O2012   1.372       .  S
C2008      C2009   1.405       .  A
C2008      H2013   1.084       .  S
C2009      C2010   1.411   1_554  A
C2010      O2014   1.371   1_565  S
C2011      C2016   1.406       .  A
C2011      C2020   1.403   1_556  A
O2012      H2028   0.991       .  S
O2014      H2025   0.992       .  S
C2016      C2017   1.403       .  A
C2016      O2021   1.371       .  S
C2017      C2018   1.409       .  A
C2017      H2022   1.083       .  S
C2018      C2019   1.414       .  A
C2019      C2020   1.397   1_556  A
C2019      O2023   1.372   1_556  S
C2020      H2024   1.084       .  S
O2021      H2026   0.991       .  S
O2023      H2027   0.992       .  S
C2029      C2030   1.400       .  A
C2029      C2034   1.399       .  A
C2029      H2039   1.084       .  S
C2030      C2035   1.474       .  S
C2030      C2031   1.405       .  A
C2031      C2032   1.398       .  A
C2031      O2036   1.372       .  S
C2032      C2033   1.408       .  A
C2032      H2037   1.083       .  S
C2033      C2034   1.415       .  A
C2034      O2038   1.371       .  S
C2035      C2040   1.405       .  A
C2035      C2044   1.399       .  A
O2036      H2052   0.992       .  S
O2038      H2049   0.992       .  S
C2040      C2041   1.399       .  A
C2040      O2045   1.371       .  S
C2041      C2042   1.409       .  A
C2041      H2046   1.083       .  S
C2042      C2043   1.415       .  A
C2043      C2044   1.397       .  A
C2043      O2047   1.372       .  S
C2044      H2048   1.084       .  S
O2045      H2050   0.992       .  S
O2047      H2051   0.992       .  S
C2053      C2054   1.407       .  A
C2053      C2058   1.403       .  A
C2053      H2063   1.083       .  S
C2054      C2059   1.482       .  S
C2054      C2055   1.404       .  A
C2055      C2056   1.392       .  A
C2055      O2060   1.372       .  S
C2056      C2057   1.410       .  A
C2056      H2061   1.083   1_554  S
C2057      C2058   1.410       .  A
C2058      O2062   1.371       .  S
C2059      C2064   1.406       .  A
C2059      C2068   1.407       .  A
O2060      H2076   0.992       .  S
O2062      H2073   0.992       .  S
C2064      C2065   1.395       .  A
C2064      O2069   1.373       .  S
C2065      C2066   1.405       .  A
C2065      H2070   1.084       .  S
C2066      C2067   1.408       .  A
C2067      C2068   1.401       .  A
C2067      O2071   1.372       .  S
C2068      H2072   1.083       .  S
O2069      H2074   0.991       .  S
O2071      H2075   0.992       .  S
C2077      C2078   1.401       .  A
C2077      C2082   1.399       .  A
C2077      H2087   1.084       .  S
C2078      C2083   1.478       .  S
C2078      C2079   1.405       .  A
C2079      C2080   1.398       .  A
C2079      O2084   1.373       .  S
C2080      C2081   1.407       .  A
C2080      H2085   1.083       .  S
C2081      C2082   1.415       .  A
C2082      O2086   1.372       .  S
C2083      C2088   1.406       .  A
C2083      C2092   1.403       .  A
O2084      H2100   0.992       .  S
O2086      H2097   0.992       .  S
C2088      C2089   1.396       .  A
C2088      O2093   1.372       .  S
C2089      C2090   1.404       .  A
C2089      H2094   1.084       .  S
C2090      C2091   1.412       .  A
C2091      C2092   1.402       .  A
C2091      O2095   1.372       .  S
C2092      H2096   1.084       .  S
O2093      H2098   0.992       .  S
O2095      H2099   0.992       .  S
C2101      C2102   1.401       .  A
C2101      C2106   1.398       .  A
C2101      H2111   1.084       .  S
C2102      C2107   1.490       .  S
C2102      C2103   1.409       .  A
C2103      C2104   1.410       .  A
C2103      O2108   1.372       .  S
C2104      C2105   1.410       .  A
C2104      H2109   1.083       .  S
C2105      C2106   1.416       .  A
C2106      O2110   1.372       .  S
C2107      C2112   1.410       .  A
C2107      C2116   1.404       .  A
O2108      H2124   0.991       .  S
O2110      H2121   0.992       .  S
C2112      C2113   1.405       .  A
C2112      O2117   1.371       .  S
C2113      C2114   1.407       .  A
C2113      H2118   1.083       .  S
C2114      C2115   1.413       .  A
C2115      C2116   1.400       .  A
C2115      O2119   1.372       .  S
C2116      H2120   1.084       .  S
O2117      H2122   0.992       .  S
O2119      H2123   0.992       .  S
C2125      C2126   1.403       .  A
C2125      C2130   1.400       .  A
C2125      H2135   1.083       .  S
C2126      C2131   1.485       .  S
C2126      C2127   1.410       .  A
C2127      C2128   1.399       .  A
C2127      O2132   1.372       .  S
C2128      C2129   1.406       .  A
C2128      H2133   1.083       .  S
C2129      C2130   1.413       .  A
C2130      O2134   1.371       .  S
C2131      C2136   1.411       .  A
C2131      C2140   1.402       .  A
O2132      H2148   0.992       .  S
O2134      H2145   0.992       .  S
C2136      C2137   1.406       .  A
C2136      O2141   1.372       .  S
C2137      C2138   1.404       .  A
C2137      H2142   1.083       .  S
C2138      C2139   1.410       .  A
C2139      C2140   1.393       .  A
C2139      O2143   1.372       .  S
C2140      H2144   1.084       .  S
O2141      H2146   0.991       .  S
O2143      H2147   0.992       .  S
C2149      C2150   1.403       .  A
C2149      C2154   1.401       .  A
C2149      H2159   1.084       .  S
C2150      C2155   1.483       .  S
C2150      C2151   1.405       .  A
C2151      C2152   1.401       .  A
C2151      O2156   1.372       .  S
C2152      C2153   1.411       .  A
C2152      H2157   1.083       .  S
C2153      C2154   1.413       .  A
C2154      O2158   1.371       .  S
C2155      C2160   1.405       .  A
C2155      C2164   1.404       .  A
O2156      H2172   0.992       .  S
O2158      H2169   0.992       .  S
C2160      C2161   1.396       .  A
C2160      O2165   1.372       .  S
C2161      C2162   1.409       .  A
C2161      H2166   1.083       .  S
C2162      C2163   1.415       .  A
C2163      C2164   1.406       .  A
C2163      O2167   1.371       .  S
C2164      H2168   1.083       .  S
O2165      H2170   0.992       .  S
O2167      H2171   0.992       .  S
C2173      C2174   1.406       .  A
C2173      C2178   1.401       .  A
C2173      H2183   1.084       .  S
C2174      C2179   1.492       .  S
C2174      C2175   1.410       .  A
C2175      C2176   1.405       .  A
C2175      O2180   1.372       .  S
C2176      C2177   1.406       .  A
C2176      H2181   1.083       .  S
C2177      C2178   1.412       .  A
C2178      O2182   1.372       .  S
C2179      C2184   1.412       .  A
C2179      C2188   1.402       .  A
O2180      H2196   0.991       .  S
O2182      H2193   0.992       .  S
C2184      C2185   1.407       .  A
C2184      O2189   1.371       .  S
C2185      C2186   1.407       .  A
C2185      H2190   1.083   1_554  S
C2186      C2187   1.414       .  A
C2187      C2188   1.397       .  A
C2187      O2191   1.373       .  S
C2188      H2192   1.084       .  S
O2189      H2194   0.992       .  S
O2191      H2195   0.992       .  S
C2197      C2198   1.400       .  A
C2197      C2202   1.395       .  A
C2197      H2207   1.084       .  S
C2198      C2203   1.473       .  S
C2198      C2199   1.404       .  A
C2199      C2200   1.402       .  A
C2199      O2204   1.371       .  S
C2200      C2201   1.407       .  A
C2200      H2205   1.083       .  S
C2201      C2202   1.410       .  A
C2202      O2206   1.372       .  S
C2203      C2208   1.405       .  A
C2203      C2212   1.399       .  A
O2204      H2220   0.992       .  S
O2206      H2217   0.992       .  S
C2208      C2209   1.400       .  A
C2208      O2213   1.372       .  S
C2209      C2210   1.408       .  A
C2209      H2214   1.083       .  S
C2210      C2211   1.413       .  A
C2211      C2212   1.396       .  A
C2211      O2215   1.372       .  S
C2212      H2216   1.084       .  S
O2213      H2218   0.992       .  S
O2215      H2219   0.992       .  S
C2221      C2222   1.404       .  A
C2221      C2226   1.405       .  A
C2221      H2231   1.084       .  S
C2222      C2227   1.482       .  S
C2222      C2223   1.405       .  A
C2223      C2224   1.399       .  A
C2223      O2228   1.373       .  S
C2224      C2225   1.407       .  A
C2224      H2229   1.083       .  S
C2225      C2226   1.412       .  A
C2226      O2230   1.371       .  S
C2227      C2232   1.408       .  A
C2227      C2236   1.401       .  A
O2228      H2244   0.992       .  S
O2230      H2241   0.992       .  S
C2232      C2233   1.399       .  A
C2232      O2237   1.371       .  S
C2233      C2234   1.406       .  A
C2233      H2238   1.083       .  S
C2234      C2235   1.417       .  A
C2235      C2236   1.402       .  A
C2235      O2239   1.372       .  S
C2236      H2240   1.084       .  S
O2237      H2242   0.992       .  S
O2239      H2243   0.992       .  S
C2245      C2246   1.401       .  A
C2245      C2250   1.395       .  A
C2245      H2255   1.084       .  S
C2246      C2251   1.472       .  S
C2246      C2247   1.406       .  A
C2247      C2248   1.396       .  A
C2247      O2252   1.372       .  S
C2248      C2249   1.405       .  A
C2248      H2253   1.084       .  S
C2249      C2250   1.411       .  A
C2250      O2254   1.372       .  S
C2251      C2256   1.406       .  A
C2251      C2260   1.401       .  A
O2252      H2268   0.992       .  S
O2254      H2265   0.992       .  S
C2256      C2257   1.396       .  A
C2256      O2261   1.372       .  S
C2257      C2258   1.404       .  A
C2257      H2262   1.084       .  S
C2258      C2259   1.409       .  A
C2259      C2260   1.397       .  A
C2259      O2263   1.372       .  S
C2260      H2264   1.084       .  S
O2261      H2266   0.992       .  S
O2263      H2267   0.992       .  S
C2269      C2270   1.403       .  A
C2269      C2274   1.403       .  A
C2269      H2279   1.083       .  S
C2270      C2275   1.477       .  S
C2270      C2271   1.407       .  A
C2271      C2272   1.395       .  A
C2271      O2276   1.372       .  S
C2272      C2273   1.403       .  A
C2272      H2277   1.084       .  S
C2273      C2274   1.410       .  A
C2274      O2278   1.371       .  S
C2275      C2280   1.405       .  A
C2275      C2284   1.399       .  A
O2276      H2292   0.991       .  S
O2278      H2289   0.992       .  S
C2280      C2281   1.402       .  A
C2280      O2285   1.371       .  S
C2281      C2282   1.408       .  A
C2281      H2286   1.083       .  S
C2282      C2283   1.417       .  A
C2283      C2284   1.395       .  A
C2283      O2287   1.372       .  S
C2284      H2288   1.084       .  S
O2285      H2290   0.991       .  S
O2287      H2291   0.992       .  S
C2293      C2294   1.404       .  A
C2293      C2298   1.402       .  A
C2293      H2303   1.084       .  S
C2294      C2299   1.483       .  S
C2294      C2295   1.406       .  A
C2295      C2296   1.400       .  A
C2295      O2300   1.373       .  S
C2296      C2297   1.408       .  A
C2296      H2301   1.083       .  S
C2297      C2298   1.413       .  A
C2298      O2302   1.371       .  S
C2299      C2304   1.409       .  A
C2299      C2308   1.400       .  A
O2300      H2316   0.992       .  S
O2302      H2313   0.992       .  S
C2304      C2305   1.401       .  A
C2304      O2309   1.371       .  S
C2305      C2306   1.407       .  A
C2305      H2310   1.083       .  S
C2306      C2307   1.415       .  A
C2307      C2308   1.398       .  A
C2307      O2311   1.372       .  S
C2308      H2312   1.084       .  S
O2309      H2314   0.991       .  S
O2311      H2315   0.993       .  S
C2317      C2318   1.398   1_455  A
C2317      C2322   1.396   1_455  A
C2317      H2327   1.084       .  S
C2318      C2323   1.478   1_655  S
C2318      C2319   1.407       .  A
C2319      C2320   1.404       .  A
C2319      O2324   1.372       .  S
C2320      C2321   1.408       .  A
C2320      H2325   1.083       .  S
C2321      C2322   1.417       .  A
C2322      O2326   1.372       .  S
C2323      C2328   1.406       .  A
C2323      C2332   1.404       .  A
O2324      H2340   0.992       .  S
O2326      H2337   0.992   1_655  S
C2328      C2329   1.398       .  A
C2328      O2333   1.371       .  S
C2329      C2330   1.405       .  A
C2329      H2334   1.084       .  S
C2330      C2331   1.409       .  A
C2331      C2332   1.401       .  A
C2331      O2335   1.371       .  S
C2332      H2336   1.084       .  S
O2333      H2338   0.993       .  S
O2335      H2339   0.992       .  S
C2341      C2342   1.400       .  A
C2341      C2346   1.402       .  A
C2341      H2351   1.084       .  S
C2342      C2347   1.478       .  S
C2342      C2343   1.406       .  A
C2343      C2344   1.399       .  A
C2343      O2348   1.373   1_554  S
C2344      C2345   1.407       .  A
C2344      H2349   1.083   1_554  S
C2345      C2346   1.417       .  A
C2346      O2350   1.371       .  S
C2347      C2352   1.406       .  A
C2347      C2356   1.404       .  A
O2348      H2364   0.991       .  S
O2350      H2361   0.992       .  S
C2352      C2353   1.394   1_554  A
C2352      O2357   1.372   1_554  S
C2353      C2354   1.404       .  A
C2353      H2358   1.084       .  S
C2354      C2355   1.410   1_556  A
C2355      C2356   1.406       .  A
C2355      O2359   1.371       .  S
C2356      H2360   1.083       .  S
O2357      H2362   0.991   1_556  S
O2359      H2363   0.992       .  S
C2365      C2366   1.403       .  A
C2365      C2370   1.403       .  A
C2365      H2375   1.084       .  S
C2366      C2371   1.473       .  S
C2366      C2367   1.404       .  A
C2367      C2368   1.396       .  A
C2367      O2372   1.372       .  S
C2368      C2369   1.404       .  A
C2368      H2373   1.084       .  S
C2369      C2370   1.409       .  A
C2370      O2374   1.371       .  S
C2371      C2376   1.404   1_556  A
C2371      C2380   1.401       .  A
O2372      H2388   0.992       .  S
O2374      H2385   0.992       .  S
C2376      C2377   1.393       .  A
C2376      O2381   1.372       .  S
C2377      C2378   1.407       .  A
C2377      H2382   1.083       .  S
C2378      C2379   1.415   1_554  A
C2379      C2380   1.404       .  A
C2379      O2383   1.371       .  S
C2380      H2384   1.083       .  S
O2381      H2386   0.991       .  S
O2383      H2387   0.992   1_455  S
C2389      C2390   1.402       .  A
C2389      C2394   1.396       .  A
C2389      H2399   1.083       .  S
C2390      C2395   1.479       .  S
C2390      C2391   1.407       .  A
C2391      C2392   1.398       .  A
C2391      O2396   1.372       .  S
C2392      C2393   1.408       .  A
C2392      H2397   1.083       .  S
C2393      C2394   1.412       .  A
C2394      O2398   1.371       .  S
C2395      C2400   1.409       .  A
C2395      C2404   1.402       .  A
O2396      H2412   0.991       .  S
O2398      H2409   0.992       .  S
C2400      C2401   1.398       .  A
C2400      O2405   1.372       .  S
C2401      C2402   1.401       .  A
C2401      H2406   1.084       .  S
C2402      C2403   1.411       .  A
C2403      C2404   1.397       .  A
C2403      O2407   1.372       .  S
C2404      H2408   1.084       .  S
O2405      H2410   0.992       .  S
O2407      H2411   0.992       .  S
C2413      C2414   1.401       .  A
C2413      C2418   1.401   1_455  A
C2413      H2423   1.084   1_455  S
C2414      C2419   1.476       .  S
C2414      C2415   1.404       .  A
C2415      C2416   1.400       .  A
C2415      O2420   1.372       .  S
C2416      C2417   1.408       .  A
C2416      H2421   1.083       .  S
C2417      C2418   1.413   1_455  A
C2418      O2422   1.372       .  S
C2419      C2424   1.404       .  A
C2419      C2428   1.402       .  A
O2420      H2436   0.991       .  S
O2422      H2433   0.992       .  S
C2424      C2425   1.397       .  A
C2424      O2429   1.372       .  S
C2425      C2426   1.409       .  A
C2425      H2430   1.083       .  S
C2426      C2427   1.413       .  A
C2427      C2428   1.402       .  A
C2427      O2431   1.371       .  S
C2428      H2432   1.084       .  S
O2429      H2434   0.992       .  S
O2431      H2435   0.992       .  S
C2437      C2438   1.403       .  A
C2437      C2442   1.397       .  A
C2437      H2447   1.084       .  S
C2438      C2443   1.483       .  S
C2438      C2439   1.409       .  A
C2439      C2440   1.402       .  A
C2439      O2444   1.374       .  S
C2440      C2441   1.405       .  A
C2440      H2445   1.084       .  S
C2441      C2442   1.411       .  A
C2442      O2446   1.371       .  S
C2443      C2448   1.409       .  A
C2443      C2452   1.403       .  A
O2444      H2460   0.992       .  S
O2446      H2457   0.992       .  S
C2448      C2449   1.397       .  A
C2448      O2453   1.372       .  S
C2449      C2450   1.407       .  A
C2449      H2454   1.083       .  S
C2450      C2451   1.413       .  A
C2451      C2452   1.401       .  A
C2451      O2455   1.371       .  S
C2452      H2456   1.084       .  S
O2453      H2458   0.992       .  S
O2455      H2459   0.992       .  S
C2461      C2462   1.404       .  A
C2461      C2466   1.401       .  A
C2461      H2471   1.083       .  S
C2462      C2467   1.490       .  S
C2462      C2463   1.409       .  A
C2463      C2464   1.402       .  A
C2463      O2468   1.372       .  S
C2464      C2465   1.409       .  A
C2464      H2469   1.083       .  S
C2465      C2466   1.413       .  A
C2466      O2470   1.372       .  S
C2467      C2472   1.408       .  A
C2467      C2476   1.404       .  A
O2468      H2484   0.991       .  S
O2470      H2481   0.993       .  S
C2472      C2473   1.403       .  A
C2472      O2477   1.372       .  S
C2473      C2474   1.408       .  A
C2473      H2478   1.083       .  S
C2474      C2475   1.415       .  A
C2475      C2476   1.402       .  A
C2475      O2479   1.371       .  S
C2476      H2480   1.084       .  S
O2477      H2482   0.992       .  S
O2479      H2483   0.992       .  S
C2485      C2486   1.402       .  A
C2485      C2490   1.400       .  A
C2485      H2495   1.084       .  S
C2486      C2491   1.476       .  S
C2486      C2487   1.404       .  A
C2487      C2488   1.396       .  A
C2487      O2492   1.372       .  S
C2488      C2489   1.408       .  A
C2488      H2493   1.083       .  S
C2489      C2490   1.414       .  A
C2490      O2494   1.371       .  S
C2491      C2496   1.408       .  A
C2491      C2500   1.400       .  A
O2492      H2508   0.992       .  S
O2494      H2505   0.992       .  S
C2496      C2497   1.402       .  A
C2496      O2501   1.372       .  S
C2497      C2498   1.403       .  A
C2497      H2502   1.083       .  S
C2498      C2499   1.412       .  A
C2499      C2500   1.395       .  A
C2499      O2503   1.372       .  S
C2500      H2504   1.084       .  S
O2501      H2506   0.991       .  S
O2503      H2507   0.992       .  S
C2509      C2510   1.401       .  A
C2509      C2514   1.397       .  A
C2509      H2519   1.083       .  S
C2510      C2515   1.488       .  S
C2510      C2511   1.412       .  A
C2511      C2512   1.404       .  A
C2511      O2516   1.371       .  S
C2512      C2513   1.405       .  A
C2512      H2517   1.083       .  S
C2513      C2514   1.413       .  A
C2514      O2518   1.372       .  S
C2515      C2520   1.411       .  A
C2515      C2524   1.403       .  A
O2516      H2532   0.992       .  S
O2518      H2529   0.992       .  S
C2520      C2521   1.403       .  A
C2520      O2525   1.372       .  S
C2521      C2522   1.404       .  A
C2521      H2526   1.084       .  S
C2522      C2523   1.413       .  A
C2523      C2524   1.400       .  A
C2523      O2527   1.372   1_556  S
C2524      H2528   1.083       .  S
O2525      H2530   0.992       .  S
O2527      H2531   0.992       .  S
C2533      C2534   1.400       .  A
C2533      C2538   1.399       .  A
C2533      H2543   1.084   1_455  S
C2534      C2539   1.482       .  S
C2534      C2535   1.407       .  A
C2535      C2536   1.405       .  A
C2535      O2540   1.372       .  S
C2536      C2537   1.408       .  A
C2536      H2541   1.083       .  S
C2537      C2538   1.416       .  A
C2538      O2542   1.372   1_455  S
C2539      C2544   1.407       .  A
C2539      C2548   1.401   1_455  A
O2540      H2556   0.992       .  S
O2542      H2553   0.992       .  S
C2544      C2545   1.402       .  A
C2544      O2549   1.372       .  S
C2545      C2546   1.408   1_455  A
C2545      H2550   1.083       .  S
C2546      C2547   1.416       .  A
C2547      C2548   1.402       .  A
C2547      O2551   1.372       .  S
C2548      H2552   1.084       .  S
O2549      H2554   0.992       .  S
O2551      H2555   0.992       .  S
C2557      C2558   1.402       .  A
C2557      C2562   1.400       .  A
C2557      H2567   1.083       .  S
C2558      C2563   1.485       .  S
C2558      C2559   1.408       .  A
C2559      C2560   1.400       .  A
C2559      O2564   1.371       .  S
C2560      C2561   1.408       .  A
C2560      H2565   1.083       .  S
C2561      C2562   1.416       .  A
C2562      O2566   1.372       .  S
C2563      C2568   1.407       .  A
C2563      C2572   1.403       .  A
O2564      H2580   0.992       .  S
O2566      H2577   0.991       .  S
C2568      C2569   1.402       .  A
C2568      O2573   1.372       .  S
C2569      C2570   1.409       .  A
C2569      H2574   1.083       .  S
C2570      C2571   1.414       .  A
C2571      C2572   1.399       .  A
C2571      O2575   1.372       .  S
C2572      H2576   1.084       .  S
O2573      H2578   0.991       .  S
O2575      H2579   0.992       .  S
C2581      C2582   1.402       .  A
C2581      C2586   1.401       .  A
C2581      H2591   1.084       .  S
C2582      C2587   1.474       .  S
C2582      C2583   1.405       .  A
C2583      C2584   1.396       .  A
C2583      O2588   1.372       .  S
C2584      C2585   1.406       .  A
C2584      H2589   1.084       .  S
C2585      C2586   1.413       .  A
C2586      O2590   1.371   1_655  S
C2587      C2592   1.403       .  A
C2587      C2596   1.405       .  A
O2588      H2604   0.992       .  S
O2590      H2601   0.992       .  S
C2592      C2593   1.393       .  A
C2592      O2597   1.372       .  S
C2593      C2594   1.404       .  A
C2593      H2598   1.084       .  S
C2594      C2595   1.408       .  A
C2595      C2596   1.405       .  A
C2595      O2599   1.371       .  S
C2596      H2600   1.083       .  S
O2597      H2602   0.992       .  S
O2599      H2603   0.991       .  S
C2605      C2606   1.404       .  A
C2605      C2610   1.397       .  A
C2605      H2615   1.083       .  S
C2606      C2611   1.481       .  S
C2606      C2607   1.410       .  A
C2607      C2608   1.397       .  A
C2607      O2612   1.372       .  S
C2608      C2609   1.402       .  A
C2608      H2613   1.084       .  S
C2609      C2610   1.409       .  A
C2610      O2614   1.372       .  S
C2611      C2616   1.408       .  A
C2611      C2620   1.403       .  A
O2612      H2628   0.991       .  S
O2614      H2625   0.992       .  S
C2616      C2617   1.399       .  A
C2616      O2621   1.372       .  S
C2617      C2618   1.406       .  A
C2617      H2622   1.083       .  S
C2618      C2619   1.413       .  A
C2619      C2620   1.398       .  A
C2619      O2623   1.372       .  S
C2620      H2624   1.084       .  S
O2621      H2626   0.991       .  S
O2623      H2627   0.992       .  S
C2629      C2630   1.401   1_455  A
C2629      C2634   1.397       .  A
C2629      H2639   1.083       .  S
C2630      C2635   1.481       .  S
C2630      C2631   1.408       .  A
C2631      C2632   1.399       .  A
C2631      O2636   1.372       .  S
C2632      C2633   1.406   1_655  A
C2632      H2637   1.083       .  S
C2633      C2634   1.414       .  A
C2634      O2638   1.372       .  S
C2635      C2640   1.408       .  A
C2635      C2644   1.404       .  A
O2636      H2652   0.992       .  S
O2638      H2649   0.992       .  S
C2640      C2641   1.398       .  A
C2640      O2645   1.373   1_655  S
C2641      C2642   1.404       .  A
C2641      H2646   1.084       .  S
C2642      C2643   1.409       .  A
C2643      C2644   1.398       .  A
C2643      O2647   1.372       .  S
C2644      H2648   1.083       .  S
O2645      H2650   0.991       .  S
O2647      H2651   0.992       .  S
C2653      C2654   1.403       .  A
C2653      C2658   1.406       .  A
C2653      H2663   1.083       .  S
C2654      C2659   1.484       .  S
C2654      C2655   1.408       .  A
C2655      C2656   1.396       .  A
C2655      O2660   1.372       .  S
C2656      C2657   1.407       .  A
C2656      H2661   1.083       .  S
C2657      C2658   1.416       .  A
C2658      O2662   1.371       .  S
C2659      C2664   1.408       .  A
C2659      C2668   1.399       .  A
O2660      H2676   0.992       .  S
O2662      H2673   0.992       .  S
C2664      C2665   1.409       .  A
C2664      O2669   1.371       .  S
C2665      C2666   1.410       .  A
C2665      H2670   1.083   1_556  S
C2666      C2667   1.417       .  A
C2667      C2668   1.392       .  A
C2667      O2671   1.372       .  S
C2668      H2672   1.084       .  S
O2669      H2674   0.992       .  S
O2671      H2675   0.992       .  S
C2677      C2678   1.401       .  A
C2677      C2682   1.400       .  A
C2677      H2687   1.084       .  S
C2678      C2683   1.473       .  S
C2678      C2679   1.406       .  A
C2679      C2680   1.398       .  A
C2679      O2684   1.373       .  S
C2680      C2681   1.404       .  A
C2680      H2685   1.084       .  S
C2681      C2682   1.410       .  A
C2682      O2686   1.371       .  S
C2683      C2688   1.406       .  A
C2683      C2692   1.398       .  A
O2684      H2700   0.992       .  S
O2686      H2697   0.992       .  S
C2688      C2689   1.400       .  A
C2688      O2693   1.373       .  S
C2689      C2690   1.406       .  A
C2689      H2694   1.084       .  S
C2690      C2691   1.415       .  A
C2691      C2692   1.398       .  A
C2691      O2695   1.372       .  S
C2692      H2696   1.084       .  S
O2693      H2698   0.992       .  S
O2695      H2699   0.992       .  S
C2701      C2702   1.401       .  A
C2701      C2706   1.398       .  A
C2701      H2711   1.083       .  S
C2702      C2707   1.482       .  S
C2702      C2703   1.410       .  A
C2703      C2704   1.398       .  A
C2703      O2708   1.372       .  S
C2704      C2705   1.404       .  A
C2704      H2709   1.083       .  S
C2705      C2706   1.414       .  A
C2706      O2710   1.372       .  S
C2707      C2712   1.409   1_455  A
C2707      C2716   1.403   1_455  A
O2708      H2724   0.992       .  S
O2710      H2721   0.992       .  S
C2712      C2713   1.401       .  A
C2712      O2717   1.372   1_655  S
C2713      C2714   1.405       .  A
C2713      H2718   1.084       .  S
C2714      C2715   1.410       .  A
C2715      C2716   1.397       .  A
C2715      O2719   1.372       .  S
C2716      H2720   1.084       .  S
O2717      H2722   0.992       .  S
O2719      H2723   0.991       .  S
C2725      C2726   1.400       .  A
C2725      C2730   1.395       .  A
C2725      H2735   1.083       .  S
C2726      C2731   1.478       .  S
C2726      C2727   1.410       .  A
C2727      C2728   1.400       .  A
C2727      O2732   1.372       .  S
C2728      C2729   1.403       .  A
C2728      H2733   1.084       .  S
C2729      C2730   1.413       .  A
C2730      O2734   1.372       .  S
C2731      C2736   1.410       .  A
C2731      C2740   1.400       .  A
O2732      H2748   0.992       .  S
O2734      H2745   0.992       .  S
C2736      C2737   1.402       .  A
C2736      O2741   1.372       .  S
C2737      C2738   1.403       .  A
C2737      H2742   1.084       .  S
C2738      C2739   1.411       .  A
C2739      C2740   1.394       .  A
C2739      O2743   1.372       .  S
C2740      H2744   1.084       .  S
O2741      H2746   0.991       .  S
O2743      H2747   0.992       .  S
C2749      C2750   1.397       .  A
C2749      C2754   1.396       .  A
C2749      H2759   1.084       .  S
C2750      C2755   1.475       .  S
C2750      C2751   1.405       .  A
C2751      C2752   1.403       .  A
C2751      O2756   1.371       .  S
C2752      C2753   1.408       .  A
C2752      H2757   1.083       .  S
C2753      C2754   1.418       .  A
C2754      O2758   1.372       .  S
C2755      C2760   1.406       .  A
C2755      C2764   1.399       .  A
O2756      H2772   0.991       .  S
O2758      H2769   0.992       .  S
C2760      C2761   1.401       .  A
C2760      O2765   1.371       .  S
C2761      C2762   1.406       .  A
C2761      H2766   1.083       .  S
C2762      C2763   1.414       .  A
C2763      C2764   1.398       .  A
C2763      O2767   1.372       .  S
C2764      H2768   1.084       .  S
O2765      H2770   0.992       .  S
O2767      H2771   0.992       .  S
C2773      C2774   1.403       .  A
C2773      C2778   1.402       .  A
C2773      H2783   1.084       .  S
C2774      C2779   1.485       .  S
C2774      C2775   1.407       .  A
C2775      C2776   1.401       .  A
C2775      O2780   1.373       .  S
C2776      C2777   1.406       .  A
C2776      H2781   1.083       .  S
C2777      C2778   1.414       .  A
C2778      O2782   1.372       .  S
C2779      C2784   1.409       .  A
C2779      C2788   1.403       .  A
O2780      H2796   0.992       .  S
O2782      H2793   0.992       .  S
C2784      C2785   1.399       .  A
C2784      O2789   1.372       .  S
C2785      C2786   1.405       .  A
C2785      H2790   1.083       .  S
C2786      C2787   1.414       .  A
C2787      C2788   1.404       .  A
C2787      O2791   1.372       .  S
C2788      H2792   1.084       .  S
O2789      H2794   0.991       .  S
O2791      H2795   0.992       .  S
C2797      C2798   1.398       .  A
C2797      C2802   1.396       .  A
C2797      H2807   1.084       .  S
C2798      C2803   1.476       .  S
C2798      C2799   1.409       .  A
C2799      C2800   1.405       .  A
C2799      O2804   1.372       .  S
C2800      C2801   1.404       .  A
C2800      H2805   1.083       .  S
C2801      C2802   1.411       .  A
C2802      O2806   1.373       .  S
C2803      C2808   1.405       .  A
C2803      C2812   1.402       .  A
O2804      H2820   0.991       .  S
O2806      H2817   0.993       .  S
C2808      C2809   1.396       .  A
C2808      O2813   1.372       .  S
C2809      C2810   1.407       .  A
C2809      H2814   1.083       .  S
C2810      C2811   1.414       .  A
C2811      C2812   1.403       .  A
C2811      O2815   1.371       .  S
C2812      H2816   1.084       .  S
O2813      H2818   0.992       .  S
O2815      H2819   0.992       .  S
C2821      C2822   1.404       .  A
C2821      C2826   1.401       .  A
C2821      H2831   1.083       .  S
C2822      C2827   1.486       .  S
C2822      C2823   1.409       .  A
C2823      C2824   1.400       .  A
C2823      O2828   1.372       .  S
C2824      C2825   1.405       .  A
C2824      H2829   1.084       .  S
C2825      C2826   1.410       .  A
C2826      O2830   1.372       .  S
C2827      C2832   1.409       .  A
C2827      C2836   1.402       .  A
O2828      H2844   0.992       .  S
O2830      H2841   0.992       .  S
C2832      C2833   1.402       .  A
C2832      O2837   1.372       .  S
C2833      C2834   1.406       .  A
C2833      H2838   1.083       .  S
C2834      C2835   1.415       .  A
C2835      C2836   1.400       .  A
C2835      O2839   1.372       .  S
C2836      H2840   1.084       .  S
O2837      H2842   0.992       .  S
O2839      H2843   0.992       .  S
C2845      C2846   1.404       .  A
C2845      C2850   1.404       .  A
C2845      H2855   1.083       .  S
C2846      C2851   1.493       .  S
C2846      C2847   1.411   1_556  A
C2847      C2848   1.404   1_554  A
C2847      O2852   1.371       .  S
C2848      C2849   1.407       .  A
C2848      H2853   1.083   1_556  S
C2849      C2850   1.414       .  A
C2850      O2854   1.372       .  S
C2851      C2856   1.410       .  A
C2851      C2860   1.402   1_556  A
O2852      H2868   0.991       .  S
O2854      H2865   0.993       .  S
C2856      C2857   1.408       .  A
C2856      O2861   1.372       .  S
C2857      C2858   1.409   1_556  A
C2857      H2862   1.083       .  S
C2858      C2859   1.417       .  A
C2859      C2860   1.401       .  A
C2859      O2863   1.372       .  S
C2860      H2864   1.084       .  S
O2861      H2866   0.991       .  S
O2863      H2867   0.992       .  S
C2869      C2870   1.404       .  A
C2869      C2874   1.404       .  A
C2869      H2879   1.083       .  S
C2870      C2875   1.484       .  S
C2870      C2871   1.409       .  A
C2871      C2872   1.394       .  A
C2871      O2876   1.372   1_554  S
C2872      C2873   1.405       .  A
C2872      H2877   1.083   1_554  S
C2873      C2874   1.414       .  A
C2874      O2878   1.371       .  S
C2875      C2880   1.411       .  A
C2875      C2884   1.403   1_554  A
O2876      H2892   0.992       .  S
O2878      H2889   0.992       .  S
C2880      C2881   1.405       .  A
C2880      O2885   1.372       .  S
C2881      C2882   1.404   1_554  A
C2881      H2886   1.084       .  S
C2882      C2883   1.406       .  A
C2883      C2884   1.395       .  A
C2883      O2887   1.372       .  S
C2884      H2888   1.084       .  S
O2885      H2890   0.991       .  S
O2887      H2891   0.992       .  S
C2893      C2894   1.405       .  A
C2893      C2898   1.404       .  A
C2893      H2903   1.083       .  S
C2894      C2899   1.491       .  S
C2894      C2895   1.407       .  A
C2895      C2896   1.402       .  A
C2895      O2900   1.372       .  S
C2896      C2897   1.410       .  A
C2896      H2901   1.083   1_554  S
C2897      C2898   1.414       .  A
C2898      O2902   1.371       .  S
C2899      C2904   1.408       .  A
C2899      C2908   1.406       .  A
O2900      H2916   0.992       .  S
O2902      H2913   0.992       .  S
C2904      C2905   1.401       .  A
C2904      O2909   1.372       .  S
C2905      C2906   1.406       .  A
C2905      H2910   1.084       .  S
C2906      C2907   1.411       .  A
C2907      C2908   1.406       .  A
C2907      O2911   1.371       .  S
C2908      H2912   1.083       .  S
O2909      H2914   0.992       .  S
O2911      H2915   0.992       .  S
C2917      C2918   1.400       .  A
C2917      C2922   1.398       .  A
C2917      H2927   1.084       .  S
C2918      C2923   1.468       .  S
C2918      C2919   1.403       .  A
C2919      C2920   1.397       .  A
C2919      O2924   1.372       .  S
C2920      C2921   1.407       .  A
C2920      H2925   1.084       .  S
C2921      C2922   1.412       .  A
C2922      O2926   1.372       .  S
C2923      C2928   1.402       .  A
C2923      C2932   1.399       .  A
O2924      H2940   0.992       .  S
O2926      H2937   0.992       .  S
C2928      C2929   1.396       .  A
C2928      O2933   1.372       .  S
C2929      C2930   1.410       .  A
C2929      H2934   1.083       .  S
C2930      C2931   1.413       .  A
C2931      C2932   1.398       .  A
C2931      O2935   1.371       .  S
C2932      H2936   1.084       .  S
O2933      H2938   0.992       .  S
O2935      H2939   0.992       .  S
C2941      C2942   1.405       .  A
C2941      C2946   1.411       .  A
C2941      H2951   1.083       .  S
C2942      C2947   1.488       .  S
C2942      C2943   1.405       .  A
C2943      C2944   1.398       .  A
C2943      O2948   1.372       .  S
C2944      C2945   1.409       .  A
C2944      H2949   1.083       .  S
C2945      C2946   1.416       .  A
C2946      O2950   1.371       .  S
C2947      C2952   1.407       .  A
C2947      C2956   1.404       .  A
O2948      H2964   0.992       .  S
O2950      H2961   0.992       .  S
C2952      C2953   1.402       .  A
C2952      O2957   1.372       .  S
C2953      C2954   1.408       .  A
C2953      H2958   1.084       .  S
C2954      C2955   1.414       .  A
C2955      C2956   1.407       .  A
C2955      O2959   1.371       .  S
C2956      H2960   1.083       .  S
O2957      H2962   0.991       .  S
O2959      H2963   0.992       .  S
C2965      C2966   1.401       .  A
C2965      C2970   1.397       .  A
C2965      H2975   1.084       .  S
C2966      C2971   1.476       .  S
C2966      C2967   1.405       .  A
C2967      C2968   1.402       .  A
C2967      O2972   1.371       .  S
C2968      C2969   1.408       .  A
C2968      H2973   1.083       .  S
C2969      C2970   1.412       .  A
C2970      O2974   1.372       .  S
C2971      C2976   1.409       .  A
C2971      C2980   1.399       .  A
O2972      H2988   0.992       .  S
O2974      H2985   0.992       .  S
C2976      C2977   1.404       .  A
C2976      O2981   1.371       .  S
C2977      C2978   1.402       .  A
C2977      H2982   1.083       .  S
C2978      C2979   1.412       .  A
C2979      C2980   1.398       .  A
C2979      O2983   1.373       .  S
C2980      H2984   1.084       .  S
O2981      H2986   0.992       .  S
O2983      H2987   0.992       .  S
C2989      C2990   1.400       .  A
C2989      C2994   1.395       .  A
C2989      H2999   1.084       .  S
C2990      C2995   1.482       .  S
C2990      C2991   1.410       .  A
C2991      C2992   1.406       .  A
C2991      O2996   1.371       .  S
C2992      C2993   1.406       .  A
C2992      H2997   1.083       .  S
C2993      C2994   1.411       .  A
C2994      O2998   1.372       .  S
C2995      C3000   1.407       .  A
C2995      C3004   1.401       .  A
O2996      H3012   0.992       .  S
O2998      H3009   0.992       .  S
C3000      C3001   1.403       .  A
C3000      O3005   1.372       .  S
C3001      C3002   1.407       .  A
C3001      H3006   1.083       .  S
C3002      C3003   1.415       .  A
C3003      C3004   1.401       .  A
C3003      O3007   1.371       .  S
C3004      H3008   1.084       .  S
O3005      H3010   0.992       .  S
O3007      H3011   0.992       .  S
C3013      C3014   1.400   1_455  A
C3013      C3018   1.399   1_455  A
C3013      H3023   1.084       .  S
C3014      C3019   1.474   1_655  S
C3014      C3015   1.404       .  A
C3015      C3016   1.398       .  A
C3015      O3020   1.372       .  S
C3016      C3017   1.409       .  A
C3016      H3021   1.083       .  S
C3017      C3018   1.415       .  A
C3018      O3022   1.371       .  S
C3019      C3024   1.406       .  A
C3019      C3028   1.400       .  A
O3020      H3036   0.991       .  S
O3022      H3033   0.992       .  S
C3024      C3025   1.399       .  A
C3024      O3029   1.372       .  S
C3025      C3026   1.404       .  A
C3025      H3030   1.083       .  S
C3026      C3027   1.414       .  A
C3027      C3028   1.398       .  A
C3027      O3031   1.372       .  S
C3028      H3032   1.084   1_455  S
O3029      H3034   0.992       .  S
O3031      H3035   0.992       .  S
C3037      C3038   1.404       .  A
C3037      C3042   1.401       .  A
C3037      H3047   1.083       .  S
C3038      C3043   1.483       .  S
C3038      C3039   1.407       .  A
C3039      C3040   1.400       .  A
C3039      O3044   1.372       .  S
C3040      C3041   1.407       .  A
C3040      H3045   1.083       .  S
C3041      C3042   1.411       .  A
C3042      O3046   1.371       .  S
C3043      C3048   1.406       .  A
C3043      C3052   1.404       .  A
O3044      H3060   0.992       .  S
O3046      H3057   0.992       .  S
C3048      C3049   1.398       .  A
C3048      O3053   1.372       .  S
C3049      C3050   1.408       .  A
C3049      H3054   1.083       .  S
C3050      C3051   1.413       .  A
C3051      C3052   1.403       .  A
C3051      O3055   1.371       .  S
C3052      H3056   1.083       .  S
O3053      H3058   0.992       .  S
O3055      H3059   0.992       .  S
C3061      C3062   1.402       .  A
C3061      C3066   1.401       .  A
C3061      H3071   1.084       .  S
C3062      C3067   1.474       .  S
C3062      C3063   1.404       .  A
C3063      C3064   1.397       .  A
C3063      O3068   1.372       .  S
C3064      C3065   1.407       .  A
C3064      H3069   1.084       .  S
C3065      C3066   1.410       .  A
C3066      O3070   1.371       .  S
C3067      C3072   1.405       .  A
C3067      C3076   1.400       .  A
O3068      H3084   0.992       .  S
O3070      H3081   0.992       .  S
C3072      C3073   1.402       .  A
C3072      O3077   1.371       .  S
C3073      C3074   1.407       .  A
C3073      H3078   1.083       .  S
C3074      C3075   1.412       .  A
C3075      C3076   1.396       .  A
C3075      O3079   1.372       .  S
C3076      H3080   1.084       .  S
O3077      H3082   0.991       .  S
O3079      H3083   0.992       .  S
C3085      C3086   1.405       .  A
C3085      C3090   1.401       .  A
C3085      H3095   1.083       .  S
C3086      C3091   1.491       .  S
C3086      C3087   1.411       .  A
C3087      C3088   1.403       .  A
C3087      O3092   1.372       .  S
C3088      C3089   1.407       .  A
C3088      H3093   1.083       .  S
C3089      C3090   1.411       .  A
C3090      O3094   1.371       .  S
C3091      C3096   1.411   1_655  A
C3091      C3100   1.404       .  A
O3092      H3108   0.992       .  S
O3094      H3105   0.992       .  S
C3096      C3097   1.401       .  A
C3096      O3101   1.372       .  S
C3097      C3098   1.407       .  A
C3097      H3102   1.083       .  S
C3098      C3099   1.415   1_455  A
C3099      C3100   1.403       .  A
C3099      O3103   1.372       .  S
C3100      H3104   1.083       .  S
O3101      H3106   0.992       .  S
O3103      H3107   0.992       .  S
C3109      C3110   1.399       .  A
C3109      C3114   1.401       .  A
C3109      H3119   1.084       .  S
C3110      C3115   1.474       .  S
C3110      C3111   1.405       .  A
C3111      C3112   1.399       .  A
C3111      O3116   1.372       .  S
C3112      C3113   1.406       .  A
C3112      H3117   1.083       .  S
C3113      C3114   1.416       .  A
C3114      O3118   1.372       .  S
C3115      C3120   1.402       .  A
C3115      C3124   1.402   1_455  A
O3116      H3132   0.992       .  S
O3118      H3129   0.993       .  S
C3120      C3121   1.396   1_455  A
C3120      O3125   1.372       .  S
C3121      C3122   1.409       .  A
C3121      H3126   1.083       .  S
C3122      C3123   1.414       .  A
C3123      C3124   1.402       .  A
C3123      O3127   1.371       .  S
C3124      H3128   1.084       .  S
O3125      H3130   0.992       .  S
O3127      H3131   0.992       .  S
C3133      C3134   1.402   1_556  A
C3133      C3138   1.403   1_556  A
C3133      H3143   1.084       .  S
C3134      C3139   1.477   1_454  S
C3134      C3135   1.404       .  A
C3135      C3136   1.395       .  A
C3135      O3140   1.372       .  S
C3136      C3137   1.408       .  A
C3136      H3141   1.083       .  S
C3137      C3138   1.414       .  A
C3138      O3142   1.371   1_554  S
C3139      C3144   1.404       .  A
C3139      C3148   1.403   1_655  A
O3140      H3156   0.992   1_455  S
O3142      H3153   0.992       .  S
C3144      C3145   1.398       .  A
C3144      O3149   1.372       .  S
C3145      C3146   1.409       .  A
C3145      H3150   1.083       .  S
C3146      C3147   1.411       .  A
C3147      C3148   1.400   1_655  A
C3147      O3151   1.371       .  S
C3148      H3152   1.084       .  S
O3149      H3154   0.992       .  S
O3151      H3155   0.992   1_655  S
C3157      C3158   1.403       .  A
C3157      C3162   1.409       .  A
C3157      H3167   1.083   1_655  S
C3158      C3163   1.486   1_655  S
C3158      C3159   1.405       .  A
C3159      C3160   1.399       .  A
C3159      O3164   1.372       .  S
C3160      C3161   1.409       .  A
C3160      H3165   1.083       .  S
C3161      C3162   1.417       .  A
C3162      O3166   1.371       .  S
C3163      C3168   1.407   1_455  A
C3163      C3172   1.403       .  A
O3164      H3180   0.992       .  S
O3166      H3177   0.992   1_655  S
C3168      C3169   1.403   1_655  A
C3168      O3173   1.371       .  S
C3169      C3170   1.407       .  A
C3169      H3174   1.083   1_455  S
C3170      C3171   1.413       .  A
C3171      C3172   1.405       .  A
C3171      O3175   1.371       .  S
C3172      H3176   1.084       .  S
O3173      H3178   0.991       .  S
O3175      H3179   0.991       .  S
C3181      C3182   1.401       .  A
C3181      C3186   1.399       .  A
C3181      H3191   1.084       .  S
C3182      C3187   1.480       .  S
C3182      C3183   1.408       .  A
C3183      C3184   1.405       .  A
C3183      O3188   1.372       .  S
C3184      C3185   1.404       .  A
C3184      H3189   1.084       .  S
C3185      C3186   1.410       .  A
C3186      O3190   1.372       .  S
C3187      C3192   1.406       .  A
C3187      C3196   1.401       .  A
O3188      H3204   0.992       .  S
O3190      H3201   0.992       .  S
C3192      C3193   1.400       .  A
C3192      O3197   1.372       .  S
C3193      C3194   1.408       .  A
C3193      H3198   1.083       .  S
C3194      C3195   1.415       .  A
C3195      C3196   1.402       .  A
C3195      O3199   1.372       .  S
C3196      H3200   1.084       .  S
O3197      H3202   0.992       .  S
O3199      H3203   0.992       .  S
C3205      C3206   1.402       .  A
C3205      C3210   1.403       .  A
C3205      H3215   1.083       .  S
C3206      C3211   1.482       .  S
C3206      C3207   1.407       .  A
C3207      C3208   1.398       .  A
C3207      O3212   1.372       .  S
C3208      C3209   1.407       .  A
C3208      H3213   1.083       .  S
C3209      C3210   1.414       .  A
C3210      O3214   1.371       .  S
C3211      C3216   1.406       .  A
C3211      C3220   1.403       .  A
O3212      H3228   0.992       .  S
O3214      H3225   0.992       .  S
C3216      C3217   1.399       .  A
C3216      O3221   1.372       .  S
C3217      C3218   1.407       .  A
C3217      H3222   1.083       .  S
C3218      C3219   1.413       .  A
C3219      C3220   1.401       .  A
C3219      O3223   1.371       .  S
C3220      H3224   1.084       .  S
O3221      H3226   0.992       .  S
O3223      H3227   0.992       .  S
C3229      C3230   1.399       .  A
C3229      C3234   1.399       .  A
C3229      H3239   1.084       .  S
C3230      C3235   1.476       .  S
C3230      C3231   1.409       .  A
C3231      C3232   1.398       .  A
C3231      O3236   1.372       .  S
C3232      C3233   1.401       .  A
C3232      H3237   1.084       .  S
C3233      C3234   1.414       .  A
C3234      O3238   1.372       .  S
C3235      C3240   1.407       .  A
C3235      C3244   1.398       .  A
O3236      H3252   0.992       .  S
O3238      H3249   0.992       .  S
C3240      C3241   1.404       .  A
C3240      O3245   1.372       .  S
C3241      C3242   1.408       .  A
C3241      H3246   1.083       .  S
C3242      C3243   1.413       .  A
C3243      C3244   1.393       .  A
C3243      O3247   1.372       .  S
C3244      H3248   1.084       .  S
O3245      H3250   0.991       .  S
O3247      H3251   0.992       .  S
C3253      C3254   1.397       .  A
C3253      C3258   1.399       .  A
C3253      H3263   1.084       .  S
C3254      C3259   1.478       .  S
C3254      C3255   1.406       .  A
C3255      C3256   1.405   1_455  A
C3255      O3260   1.371       .  S
C3256      C3257   1.409       .  A
C3256      H3261   1.083       .  S
C3257      C3258   1.419   1_655  A
C3258      O3262   1.372       .  S
C3259      C3264   1.405       .  A
C3259      C3268   1.401       .  A
O3260      H3276   0.992       .  S
O3262      H3273   0.992       .  S
C3264      C3265   1.402       .  A
C3264      O3269   1.371       .  S
C3265      C3266   1.407       .  A
C3265      H3270   1.083       .  S
C3266      C3267   1.413       .  A
C3267      C3268   1.402       .  A
C3267      O3271   1.372       .  S
C3268      H3272   1.084       .  S
O3269      H3274   0.990       .  S
O3271      H3275   0.991       .  S
C3277      C3278   1.401       .  A
C3277      C3282   1.398       .  A
C3277      H3287   1.084       .  S
C3278      C3283   1.482       .  S
C3278      C3279   1.407       .  A
C3279      C3280   1.403       .  A
C3279      O3284   1.371       .  S
C3280      C3281   1.408       .  A
C3280      H3285   1.083       .  S
C3281      C3282   1.415       .  A
C3282      O3286   1.372       .  S
C3283      C3288   1.406       .  A
C3283      C3292   1.402       .  A
O3284      H3300   0.991       .  S
O3286      H3297   0.993       .  S
C3288      C3289   1.400       .  A
C3288      O3293   1.372       .  S
C3289      C3290   1.408       .  A
C3289      H3294   1.083       .  S
C3290      C3291   1.413       .  A
C3291      C3292   1.401       .  A
C3291      O3295   1.371   1_554  S
C3292      H3296   1.084       .  S
O3293      H3298   0.992       .  S
O3295      H3299   0.992       .  S
C3301      C3302   1.402       .  A
C3301      C3306   1.396       .  A
C3301      H3311   1.084       .  S
C3302      C3307   1.480       .  S
C3302      C3303   1.407       .  A
C3303      C3304   1.401       .  A
C3303      O3308   1.373       .  S
C3304      C3305   1.405       .  A
C3304      H3309   1.083       .  S
C3305      C3306   1.414       .  A
C3306      O3310   1.372       .  S
C3307      C3312   1.409       .  A
C3307      C3316   1.401       .  A
O3308      H3324   0.993       .  S
O3310      H3321   0.991       .  S
C3312      C3313   1.398       .  A
C3312      O3317   1.372       .  S
C3313      C3314   1.406       .  A
C3313      H3318   1.083       .  S
C3314      C3315   1.416       .  A
C3315      C3316   1.399       .  A
C3315      O3319   1.372       .  S
C3316      H3320   1.084       .  S
O3317      H3322   0.992       .  S
O3319      H3323   0.992       .  S
C3325      C3326   1.401       .  A
C3325      C3330   1.392       .  A
C3325      H3335   1.084       .  S
C3326      C3331   1.466       .  S
C3326      C3327   1.404       .  A
C3327      C3328   1.399       .  A
C3327      O3332   1.371       .  S
C3328      C3329   1.404       .  A
C3328      H3333   1.084       .  S
C3329      C3330   1.405       .  A
C3330      O3334   1.372       .  S
C3331      C3336   1.404       .  A
C3331      C3340   1.397       .  A
O3332      H3348   0.992       .  S
O3334      H3345   0.992       .  S
C3336      C3337   1.398       .  A
C3336      O3341   1.372       .  S
C3337      C3338   1.408       .  A
C3337      H3342   1.083       .  S
C3338      C3339   1.415       .  A
C3339      C3340   1.393       .  A
C3339      O3343   1.372       .  S
C3340      H3344   1.084       .  S
O3341      H3346   0.992       .  S
O3343      H3347   0.992       .  S
C3349      C3350   1.401       .  A
C3349      C3354   1.395       .  A
C3349      H3359   1.083       .  S
C3350      C3355   1.483       .  S
C3350      C3351   1.411       .  A
C3351      C3352   1.404       .  A
C3351      O3356   1.371       .  S
C3352      C3353   1.403       .  A
C3352      H3357   1.083       .  S
C3353      C3354   1.410       .  A
C3354      O3358   1.372       .  S
C3355      C3360   1.407       .  A
C3355      C3364   1.404       .  A
O3356      H3372   0.991       .  S
O3358      H3369   0.992       .  S
C3360      C3361   1.399       .  A
C3360      O3365   1.373       .  S
C3361      C3362   1.407       .  A
C3361      H3366   1.084       .  S
C3362      C3363   1.411       .  A
C3363      C3364   1.402       .  A
C3363      O3367   1.371       .  S
C3364      H3368   1.084       .  S
O3365      H3370   0.992       .  S
O3367      H3371   0.992       .  S
C3373      C3374   1.405       .  A
C3373      C3378   1.399       .  A
C3373      H3383   1.083       .  S
C3374      C3379   1.483   1_455  S
C3374      C3375   1.409       .  A
C3375      C3376   1.396       .  A
C3375      O3380   1.372       .  S
C3376      C3377   1.404       .  A
C3376      H3381   1.084       .  S
C3377      C3378   1.410       .  A
C3378      O3382   1.372       .  S
C3379      C3384   1.409       .  A
C3379      C3388   1.404       .  A
O3380      H3396   0.992       .  S
O3382      H3393   0.992       .  S
C3384      C3385   1.398       .  A
C3384      O3389   1.372       .  S
C3385      C3386   1.404       .  A
C3385      H3390   1.084       .  S
C3386      C3387   1.411       .  A
C3387      C3388   1.398       .  A
C3387      O3391   1.372       .  S
C3388      H3392   1.083       .  S
O3389      H3394   0.992       .  S
O3391      H3395   0.992       .  S
C3397      C3398   1.406       .  A
C3397      C3402   1.397       .  A
C3397      H3407   1.083       .  S
C3398      C3403   1.484       .  S
C3398      C3399   1.411       .  A
C3399      C3400   1.396       .  A
C3399      O3404   1.372       .  S
C3400      C3401   1.403       .  A
C3400      H3405   1.084       .  S
C3401      C3402   1.407       .  A
C3402      O3406   1.372       .  S
C3403      C3408   1.410       .  A
C3403      C3412   1.402       .  A
O3404      H3420   0.992       .  S
O3406      H3417   0.992       .  S
C3408      C3409   1.401       .  A
C3408      O3413   1.373       .  S
C3409      C3410   1.406       .  A
C3409      H3414   1.083       .  S
C3410      C3411   1.413       .  A
C3411      C3412   1.395       .  A
C3411      O3415   1.372       .  S
C3412      H3416   1.083       .  S
O3413      H3418   0.992       .  S
O3415      H3419   0.992       .  S
