geometry optimzed in LAMMPS
_audit_creation_date              2020-12-01 
_audit_creation_method            'lammps2cif' 
_symmetry_space_group_name_H-M    'P1' 
_symmetry_Int_Tables_number       1 
_symmetry_cell_setting            triclinic 
loop_ 
_symmetry_equiv_pos_as_xyz 
  x,y,z 
_cell_length_a                    40.58883909 
_cell_length_b                    40.72473672013273 
_cell_length_c                    42.66188027636655 
_cell_angle_alpha                 89.49551854443921 
_cell_angle_beta                  90.17139810238199 
_cell_angle_gamma                 90.55913835889255 
loop_ 
_atom_site_label 
_atom_site_type_symbol 
_atom_site_fract_x 
_atom_site_fract_y 
_atom_site_fract_z 
_atom_site_charge 
O1          O  0.91631354  0.41343571  0.90255160    -0.56600
C2          C  0.88809177  0.47119066  0.96476361     0.76000
O3          O  0.85161384  0.44985731  0.85334216    -0.57800
C4          C  0.90591172  0.38895072  0.88731650     0.76000
C5          C  0.79508308  0.42276346  0.92804369     0.78300
Cd6        Cd  0.86193598  0.43889996  0.90965617     1.37500
O7          O  0.88480697  0.44026109  0.96381595    -0.56600
O8          O  0.81891458  0.40396843  0.93406998    -0.55500
C9          C  0.86516368  0.47793429  0.85309314     0.78300
O10         O  0.80188154  0.44890093  0.91307410    -0.57800
O11         O  0.87929335  0.48695470  0.94050440    -0.56300
O12         O  0.87499099  0.38599673  0.88456665    -0.56300
O13         O  0.87529375  0.48864548  0.87918910    -0.55400
O14         O  0.01854606  0.65583087  0.12306540    -0.56600
C15         C  0.08360735  0.63601275  0.19227495     0.76000
O16         O  0.99666364  0.72337074  0.17719703    -0.57800
C17         C  0.99519220  0.63515574  0.12519367     0.76000
C18         C  0.98870735  0.65344808  0.23753535     0.78300
Cd19       Cd  0.02216272  0.66846635  0.17953296     1.37500
O20         O  0.06158816  0.62355705  0.17495682    -0.56600
O21         O  0.97370118  0.65390286  0.21147279    -0.55500
C22         C  0.02042479  0.73760948  0.16347366     0.78300
O23         O  0.01865187  0.66222713  0.23718005    -0.57800
O24         O  0.07828672  0.66461157  0.20240328    -0.56300
O25         O  0.98377854  0.63000735  0.15239979    -0.56300
O26         O  0.04570049  0.72047916  0.15866833    -0.55400
O27         O  0.57196600  0.73645638  0.18433695    -0.56600
C28         C  0.49972250  0.74158094  0.12124099     0.76000
O29         O  0.49212747  0.65312522  0.16235816    -0.57800
C30         C  0.58295387  0.71667618  0.20487347     0.76000
C31         C  0.47871234  0.72533708  0.22743173     0.78300
Cd32       Cd  0.51991156  0.70528126  0.17612441     1.37500
O33         O  0.52999701  0.73844331  0.12777578    -0.56600
O34         O  0.48935977  0.74521060  0.20681030    -0.55500
C35         C  0.51770528  0.63963361  0.15186195     0.78300
O36         O  0.48691548  0.69562608  0.22454183    -0.57800
O37         O  0.47946381  0.72792875  0.13978066    -0.56300
O38         O  0.56531479  0.69177655  0.21118028    -0.56300
O39         O  0.54418227  0.65616764  0.15311905    -0.55400
O40         O  0.33738402  0.95634624  0.87483545    -0.56600
C41         C  0.36331367  0.87292040  0.95403189     0.76000
O42         O  0.27983567  0.87669492  0.89014314    -0.57800
C43         C  0.36417613  0.96509872  0.88764417     0.76000
C44         C  0.35861250  0.86812443  0.84168184     0.78300
Cd45       Cd  0.33599346  0.90087130  0.89739787     1.37500
O46         O  0.37377618  0.86534126  0.92718331    -0.56600
O47         O  0.35174907  0.85208243  0.86642515    -0.55500
C48         C  0.26524926  0.89924815  0.90464196     0.78300
O49         O  0.35346497  0.89864993  0.84226520    -0.57800
O50         O  0.34040560  0.89367225  0.95483775    -0.56300
O51         O  0.37708775  0.94486244  0.90656625    -0.56300
O52         O  0.28316103  0.92234782  0.91484260    -0.55400
O53         O  0.53695120  0.10403801  0.18207594    -0.56600
C54         C  0.59753492  0.09504859  0.11608001     0.76000
O55         O  0.60157419  0.19237025  0.18195907    -0.57800
C56         C  0.52573544  0.12504747  0.20081689     0.76000
C57         C  0.63920591  0.10823997  0.21442863     0.78300
Cd58       Cd  0.58991200  0.13328956  0.17193353     1.37500
O59         O  0.61788764  0.09370037  0.13856681    -0.56600
O60         O  0.60920901  0.09969703  0.21593622    -0.55500
C61         C  0.59985021  0.20111093  0.15349258     0.78300
O62         O  0.64663451  0.12948363  0.19377599    -0.57800
O63         O  0.57286273  0.11336930  0.11970336    -0.56300
O64         O  0.54353782  0.15018471  0.20539980    -0.56300
O65         O  0.59414581  0.17862512  0.13392545    -0.55400
O66         O  0.70188917  0.92072289  0.87003160    -0.56600
C67         C  0.71309452  0.97298392  0.93254422     0.76000
O68         O  0.79769182  0.98833012  0.89538978    -0.57800
C69         C  0.71788547  0.89817057  0.85703942     0.76000
C70         C  0.73593625  0.00022769  0.82161825     0.78300
Cd71       Cd  0.74829229  0.95903001  0.87592633     1.37500
O72         O  0.73227429  0.94880225  0.93068645    -0.56600
O73         O  0.72859500  0.00887492  0.84908943    -0.55500
C74         C  0.81551989  0.96325975  0.89858547     0.78300
O75         O  0.75147188  0.97361242  0.81921891    -0.57800
O76         O  0.70967498  0.99042517  0.90806937    -0.56300
O77         O  0.74845178  0.90323785  0.85321469    -0.56300
O78         O  0.80329751  0.93637974  0.88922899    -0.55400
O79         O  0.02812414  0.24734049  0.18762609    -0.56600
C80         C  0.09567802  0.25889198  0.12811888     0.76000
O81         O  0.12402222  0.25355255  0.20362890    -0.57800
C82         C  0.01905597  0.23107542  0.21156309     0.76000
C83         C  0.08068879  0.15210385  0.15619577     0.78300
Cd84       Cd  0.08060495  0.21795279  0.18130467     1.37500
O85         O  0.06994634  0.26346962  0.14412387    -0.56600
O86         O  0.05640519  0.17103613  0.15268482    -0.55500
C87         C  0.12545768  0.23939723  0.23005305     0.78300
O88         O  0.10483612  0.16329819  0.17170810    -0.57800
O89         O  0.11359780  0.23495155  0.13620183    -0.56300
O90         O  0.03764235  0.20809052  0.22047480    -0.56300
O91         O  0.10778939  0.21392434  0.23344158    -0.55400
O92         O  0.21744076  0.45904023  0.89526100    -0.56600
C93         C  0.23313541  0.38103209  0.95526169     0.76000
O94         O  0.28069139  0.40595569  0.85358587    -0.57800
C95         C  0.23625299  0.48217068  0.88607769     0.76000
C96         C  0.32431322  0.43099644  0.93931751     0.78300
Cd97       Cd  0.26299580  0.42055282  0.90725147     1.37500
O98         O  0.21984349  0.40769303  0.94652848    -0.56600
O99         O  0.29787022  0.44378990  0.94868359    -0.55500
C100        C  0.25937436  0.38347895  0.84991479     0.78300
O101        O  0.32271335  0.41445723  0.91430599    -0.57800
O102        O  0.25960796  0.37321992  0.94187666    -0.56300
O103        O  0.26683738  0.47759794  0.88893776    -0.56300
O104        O  0.24090639  0.37724118  0.87304060    -0.55400
C105        C  0.04093848  0.94356079  0.01546429    -0.01300
C106        C  0.56479801  0.42207968  0.03202034    -0.01300
O107        O  0.11445303  0.27905268  0.66734029    -0.56600
C108        C  0.03767885  0.29029038  0.60462913     0.76000
O109        O  0.08701980  0.20912132  0.62000243    -0.57800
C110        C  0.12402530  0.25813449  0.68751939     0.76000
C111        C  0.01865484  0.26180507  0.70667347     0.78300
Cd112      Cd  0.06234657  0.24915132  0.65516707     1.37500
O113        O  0.06790131  0.29056197  0.61198474    -0.56600
O114        O  0.04306750  0.28021912  0.70031389    -0.55500
C115        C  0.06916905  0.18504074  0.62839177     0.78300
O116        O  0.01409635  0.23732054  0.68907207    -0.57800
O117        O  0.01922570  0.27148978  0.62064655    -0.56300
O118        O  0.10595580  0.23299978  0.69144006    -0.56300
O119        O  0.04775454  0.19045896  0.64916563    -0.55400
O120        O  0.89129109  0.39452598  0.41136228    -0.56600
C121        C  0.85417077  0.48096925  0.36190292     0.76000
O122        O  0.85281905  0.40626687  0.32876133    -0.57800
C123        C  0.88090374  0.39932143  0.43884283     0.76000
C124        C  0.77354992  0.40385819  0.40196527     0.78300
Cd125      Cd  0.84127754  0.41519242  0.38441320     1.37500
O126        O  0.87524449  0.46544496  0.37803401    -0.56600
O127        O  0.78873090  0.43034485  0.40798935    -0.55500
C128        C  0.85813544  0.37587205  0.33127664     0.78300
O129        O  0.78948455  0.38240460  0.38724642    -0.57800
O130        O  0.82669476  0.46681064  0.35761109    -0.56300
O131        O  0.85307971  0.41268749  0.44113760    -0.56300
O132        O  0.85407049  0.36307946  0.35816353    -0.55400
O133        O  0.52359526  0.75297236  0.67954390    -0.56600
C134        C  0.59584084  0.76284638  0.61776665     0.76000
O135        O  0.59213104  0.74120186  0.71263728    -0.57800
C136        C  0.51154361  0.73247421  0.69900619     0.76000
C137        C  0.55540983  0.65899013  0.63173701     0.78300
Cd138      Cd  0.57024088  0.71845399  0.66463009     1.37500
O139        O  0.61292210  0.74046888  0.63026647    -0.56600
O140        O  0.54362659  0.68634390  0.62357831    -0.55500
C141        C  0.61937997  0.72647387  0.71276535     0.78300
O142        O  0.57383259  0.65871005  0.65576100    -0.57800
O143        O  0.56630753  0.76498616  0.62686765    -0.56300
O144        O  0.52589704  0.70511844  0.70159046    -0.56300
O145        O  0.62396850  0.70612669  0.69098005    -0.55400
O146        O  0.77068307  0.83625866  0.42603454    -0.56600
C147        C  0.75131476  0.93959162  0.36518374     0.76000
O148        O  0.83845904  0.86231023  0.39126071    -0.57800
C149        C  0.74915728  0.85173575  0.44120286     0.76000
C150        C  0.76102401  0.83933726  0.33476566     0.78300
Cd151      Cd  0.78056623  0.87968303  0.38680168     1.37500
O152        O  0.74427896  0.92731039  0.39167765    -0.56600
O153        O  0.74834185  0.83639433  0.36169060    -0.55500
C154        C  0.84843838  0.88737108  0.40584754     0.78300
O155        O  0.78438961  0.85989422  0.33199933    -0.57800
O156        O  0.77295135  0.92501462  0.34935230    -0.56300
O157        O  0.74223976  0.88029151  0.43140430    -0.56300
O158        O  0.82738866  0.90938429  0.41079015    -0.55400
O159        O  0.01887426  0.60992244  0.69377225    -0.56600
C160        C  0.08255749  0.61511905  0.62927591     0.76000
O161        O  0.09533431  0.70174508  0.67623129    -0.57800
C162        C  0.99880982  0.62968095  0.70591280     0.76000
C163        C  0.09880387  0.63366086  0.73981186     0.78300
Cd164      Cd  0.06264553  0.65090751  0.68389100     1.37500
O165        O  0.10231372  0.62184922  0.65131276    -0.56600
O166        O  0.10311187  0.61969053  0.71383425    -0.55500
C167        C  0.07249198  0.71813137  0.66366577     0.78300
O168        O  0.07840308  0.65692990  0.74005538    -0.57800
O169        O  0.05325615  0.62495371  0.63227647    -0.56300
O170        O  0.00735403  0.65961736  0.70616761    -0.56300
O171        O  0.04495089  0.70367475  0.66072387    -0.55400
O172        O  0.21936706  0.42692278  0.38698162    -0.56600
C173        C  0.21440690  0.49031900  0.45716217     0.76000
O174        O  0.30830738  0.50054846  0.40482655    -0.57800
C175        C  0.24089793  0.41578733  0.36850912     0.76000
C176        C  0.23608780  0.52340973  0.35321422     0.78300
Cd177      Cd  0.25233882  0.47619538  0.40142710     1.37500
O178        O  0.23006340  0.46382071  0.45474025    -0.56600
O179        O  0.25594923  0.53054423  0.37509318    -0.55500
C180        C  0.32046246  0.47696221  0.42028517     0.78300
O181        O  0.22411604  0.49458905  0.35355684    -0.57800
O182        O  0.21534674  0.50938867  0.43368622    -0.56300
O183        O  0.26749401  0.43199839  0.36612654    -0.56300
O184        O  0.30128101  0.45326064  0.42678403    -0.55400
O185        O  0.54927472  0.11078854  0.67650820    -0.56600
C186        C  0.46777925  0.11564847  0.61820347     0.76000
O187        O  0.45463709  0.15231702  0.70963518    -0.57800
C188        C  0.56606191  0.13188988  0.69148568     0.76000
C189        C  0.50398617  0.21299356  0.65210110     0.78300
Cd190      Cd  0.49972860  0.14571642  0.67135071     1.37500
O191        O  0.49684307  0.10783453  0.62591795    -0.56600
O192        O  0.51469900  0.18987264  0.63540302    -0.55500
C193        C  0.46097464  0.12644435  0.72493831     0.78300
O194        O  0.49173666  0.20511080  0.67839000    -0.57800
O195        O  0.45378297  0.13652625  0.63514368    -0.56300
O196        O  0.55292900  0.15955580  0.69545830    -0.56300
O197        O  0.48508272  0.10980704  0.71557726    -0.55400
O198        O  0.36825841  0.90755071  0.37318824    -0.56600
C199        C  0.36605535  0.97770733  0.43744800     0.76000
O200        O  0.32310889  0.98235229  0.33049543    -0.57800
C201        C  0.34656448  0.89035784  0.35944913     0.76000
C202        C  0.26541181  0.96076002  0.40521369     0.78300
Cd203      Cd  0.33171749  0.95506948  0.38253411     1.37500
O204        O  0.36037779  0.94745550  0.43328908    -0.56600
O205        O  0.28429148  0.93794083  0.41401479    -0.55500
C206        C  0.35129686  0.99591784  0.32991877     0.78300
O207        O  0.27684061  0.98085858  0.38517129    -0.57800
O208        O  0.35580133  0.99718476  0.41641657    -0.56300
O209        O  0.31816449  0.90257416  0.35726490    -0.56300
O210        O  0.36985374  0.99042917  0.35320339    -0.55400
C211        C  0.05257255  0.94273039  0.54489364    -0.01300
C212        C  0.55165368  0.42883204  0.52238508    -0.01300
C213        C  0.12768245  0.95348369  0.48785249     0.19900
C214        C  0.13166727  0.96625012  0.45742302    -0.18200
C215        C  0.16169831  0.96339540  0.44177594    -0.10500
C216        C  0.18851667  0.94793006  0.45649940     0.22100
C217        C  0.18452272  0.93512602  0.48688037    -0.19900
C218        C  0.15460451  0.93814022  0.50257679    -0.10700
C219        C  0.22092882  0.94430244  0.44106744    -0.14900
C220        C  0.23196156  0.96417381  0.41796025    -0.28700
C221        C  0.09549934  0.95752974  0.50374288    -0.03000
C222        C  0.08540065  0.93848010  0.52792227    -0.39500
H223        H  0.11136092  0.97825548  0.44559811     0.13300
H224        H  0.16355844  0.97288343  0.41809018     0.12900
H225        H  0.20485769  0.92322271  0.49876543     0.12300
H226        H  0.15305508  0.92896934  0.52638637     0.12600
H227        H  0.23718481  0.92550654  0.45039093     0.15300
H228        H  0.21707116  0.98424314  0.40918647     0.14100
H229        H  0.07892371  0.97567706  0.49401428     0.11800
H230        H  0.10063469  0.91794053  0.53493265     0.13800
C231        C  0.52639216  0.35200567  0.57250800     0.19900
C232        C  0.50305146  0.34573280  0.59610894    -0.18200
C233        C  0.50057914  0.31467103  0.61023446    -0.10500
C234        C  0.52153084  0.28925466  0.60090182     0.22100
C235        C  0.54462590  0.29546753  0.57721671    -0.19900
C236        C  0.54704768  0.32634735  0.56309079    -0.10700
C237        C  0.51918099  0.25542668  0.61373384    -0.14900
C238        C  0.50544161  0.24743039  0.64139794    -0.28700
C239        C  0.52734293  0.38498386  0.55732627    -0.03000
C240        C  0.55225199  0.39570857  0.53896927    -0.39500
H241        H  0.48646833  0.36485963  0.60345321     0.13300
H242        H  0.48176801  0.31056808  0.62776947     0.12900
H243        H  0.56070806  0.27616062  0.56930196     0.12300
H244        H  0.56457923  0.32935992  0.54428274     0.12600
H245        H  0.53014840  0.23612541  0.59986979     0.15300
H246        H  0.49540826  0.26608182  0.65653576     0.14100
H247        H  0.50668944  0.40121751  0.56128174     0.11800
H248        H  0.57376497  0.38056261  0.53580032     0.13800
C249        C  0.41004803  0.03480730  0.49613578     0.19900
C250        C  0.40822452  0.06859014  0.50199289    -0.18200
C251        C  0.42512673  0.08242387  0.52727084    -0.10500
C252        C  0.44442016  0.06268735  0.54719358     0.22100
C253        C  0.44714359  0.02912159  0.54079822    -0.19900
C254        C  0.43004206  0.01520711  0.51561431    -0.10700
C255        C  0.46236384  0.07658780  0.57442798    -0.14900
C256        C  0.45058286  0.10187282  0.59082495    -0.28700
C257        C  0.39169397  0.02142310  0.46885620    -0.03000
C258        C  0.38395676  0.98945911  0.46533522    -0.39500
H259        H  0.39352893  0.08435056  0.48701600     0.13300
H260        H  0.42340276  0.10862294  0.53087924     0.12900
H261        H  0.46230056  0.01356048  0.55553371     0.12300
H262        H  0.43308966  0.98930400  0.51129676     0.12600
H263        H  0.48485377  0.06467786  0.58216013     0.15300
H264        H  0.42696502  0.11244966  0.58461999     0.14100
H265        H  0.38355158  0.03891010  0.45112673     0.11800
H266        H  0.39061763  0.97142857  0.48302714     0.13800
C267        C  0.46415331  0.44977591  0.48823233     0.19900
C268        C  0.44575527  0.47873891  0.48729461    -0.18200
C269        C  0.41542346  0.47968184  0.47188381    -0.10500
C270        C  0.40267067  0.45141350  0.45738933     0.22100
C271        C  0.42099884  0.42236345  0.45839763    -0.19900
C272        C  0.45165171  0.42155234  0.47347158    -0.10700
C273        C  0.36920372  0.45086838  0.44349806    -0.14900
C274        C  0.35500345  0.47756362  0.43080407    -0.28700
C275        C  0.49456960  0.44932092  0.50737458    -0.03000
C276        C  0.52084924  0.43024107  0.50145929    -0.39500
H277        H  0.45468433  0.50061595  0.49899303     0.13300
H278        H  0.40148000  0.50217697  0.47247827     0.12900
H279        H  0.41134822  0.40014204  0.44785602     0.12300
H280        H  0.46478599  0.39857603  0.47463791     0.12600
H281        H  0.35576412  0.42764014  0.44383610     0.15300
H282        H  0.36876425  0.50043140  0.42832020     0.14100
H283        H  0.49473339  0.46567050  0.52726279     0.11800
H284        H  0.51980130  0.41376073  0.48160436     0.13800
C285        C  0.05764919  0.80500170  0.62933472     0.19900
C286        C  0.02938148  0.82162845  0.61912127    -0.18200
C287        C  0.03170421  0.85321240  0.60624710    -0.10500
C288        C  0.06256886  0.86886003  0.60298874     0.22100
C289        C  0.09072054  0.85279157  0.61410750    -0.19900
C290        C  0.08842655  0.82117833  0.62700829    -0.10700
C291        C  0.06658786  0.90131242  0.58724979    -0.14900
C292        C  0.04574547  0.91213655  0.56488772    -0.28700
C293        C  0.05358747  0.77079374  0.64149542    -0.03000
C294        C  0.07817750  0.75220900  0.65291389    -0.39500
H295        H  0.00531395  0.81003444  0.62090468     0.13300
H296        H  0.00923347  0.86518656  0.59900823     0.12900
H297        H  0.11475688  0.86439868  0.61202467     0.12300
H298        H  0.11098881  0.80968478  0.63451258     0.12600
H299        H  0.08900415  0.91530491  0.59182600     0.15300
H300        H  0.02400253  0.89751939  0.55944312     0.14100
H301        H  0.02889862  0.76021736  0.64079919     0.11800
H302        H  0.10312410  0.76163505  0.65465599     0.13800
C303        C  0.13555247  0.56717879  0.57090929     0.19900
C304        C  0.16023694  0.54342769  0.57388690    -0.18200
C305        C  0.17402970  0.52915098  0.54729537    -0.10500
C306        C  0.16355521  0.53870548  0.51710827     0.22100
C307        C  0.13891655  0.56248420  0.51422202    -0.19900
C308        C  0.12497349  0.57652384  0.54075434    -0.10700
C309        C  0.17941632  0.52675060  0.48807309    -0.14900
C310        C  0.19680401  0.49886959  0.48616879    -0.28700
C311        C  0.12309292  0.58345290  0.59946418    -0.03000
C312        C  0.09312791  0.59720226  0.60122939    -0.39500
H313        H  0.16915907  0.53620131  0.59686458     0.13300
H314        H  0.19362462  0.51163237  0.55054313     0.12900
H315        H  0.13078675  0.57066912  0.49126624     0.12300
H316        H  0.10680582  0.59551573  0.53745885     0.12600
H317        H  0.17669306  0.54190696  0.46713860     0.15300
H318        H  0.19883103  0.48234849  0.50614322     0.14100
H319        H  0.13915432  0.58387835  0.61989627     0.11800
H320        H  0.07585272  0.59529129  0.58186086     0.13800
C321        C  0.92658391  0.91725983  0.44881339     0.19900
C322        C  0.93896941  0.94797421  0.45810898    -0.18200
C323        C  0.96923461  0.95051131  0.47367554    -0.10500
C324        C  0.98746279  0.92216197  0.48068831     0.22100
C325        C  0.97557612  0.89160232  0.47057182    -0.19900
C326        C  0.94534928  0.88905309  0.45505882    -0.10700
C327        C  0.01801213  0.92299284  0.49977991    -0.14900
C328        C  0.02426203  0.94604394  0.52151545    -0.28700
C329        C  0.89323413  0.91537895  0.43450148    -0.03000
C330        C  0.88268790  0.88998281  0.41706943    -0.39500
H331        H  0.92503572  0.97006431  0.45353061     0.13300
H332        H  0.97806964  0.97462417  0.48028700     0.12900
H333        H  0.98913182  0.86941298  0.47576743     0.12300
H334        H  0.93638125  0.86480601  0.44912655     0.12600
H335        H  0.03428993  0.90200446  0.49849878     0.15300
H336        H  0.00760166  0.96652682  0.52403155     0.14100
H337        H  0.87663755  0.93565226  0.43869581     0.11800
H338        H  0.89908880  0.87005496  0.41140373     0.13800
C339        C  0.55519401  0.51583213  0.55981272     0.19900
C340        C  0.54593481  0.54670241  0.54828253    -0.18200
C341        C  0.54782425  0.57431245  0.56726822    -0.10500
C342        C  0.55900836  0.57160446  0.59845263     0.22100
C343        C  0.56851788  0.54069761  0.60993044    -0.19900
C344        C  0.56662374  0.51299570  0.59085497    -0.10700
C345        C  0.56309532  0.60067955  0.61891202    -0.14900
C346        C  0.54821560  0.62947177  0.61330389    -0.28700
C347        C  0.55413176  0.48785507  0.53800380    -0.03000
C348        C  0.55269038  0.45602483  0.54686457    -0.39500
H349        H  0.53751144  0.54956145  0.52428751     0.13300
H350        H  0.54143629  0.59770059  0.55690979     0.12900
H351        H  0.57778135  0.53804157  0.63365204     0.12300
H352        H  0.57495554  0.48977309  0.60026848     0.12600
H353        H  0.57936599  0.59843263  0.63908581     0.15300
H354        H  0.53089157  0.63220027  0.59410765     0.14100
H355        H  0.55327894  0.49362936  0.51306804     0.11800
H356        H  0.55236137  0.44944054  0.57157406     0.13800
C357        C  0.69089568  0.83511219  0.51051399     0.19900
C358        C  0.65700409  0.83961123  0.51486881    -0.18200
C359        C  0.64046046  0.82365702  0.53948045    -0.10500
C360        C  0.65779832  0.80324484  0.56051362     0.22100
C361        C  0.69195335  0.79997302  0.55678183    -0.19900
C362        C  0.70836357  0.81573151  0.53215603    -0.10700
C363        C  0.64165275  0.78363180  0.58577206    -0.14900
C364        C  0.60960525  0.78508156  0.59360030    -0.28700
C365        C  0.70746228  0.85071995  0.48320863    -0.03000
C366        C  0.73323270  0.83684070  0.46887418    -0.39500
H367        H  0.64312374  0.85474325  0.49863306     0.13300
H368        H  0.61417548  0.82696176  0.54129998     0.12900
H369        H  0.70603095  0.78474184  0.57278158     0.12300
H370        H  0.73472889  0.81269217  0.53015557     0.12600
H371        H  0.65720735  0.76639703  0.59843585     0.15300
H372        H  0.59307155  0.80229945  0.58237061     0.14100
H373        H  0.69708136  0.87317114  0.47359974     0.11800
H374        H  0.74236394  0.81324120  0.47689289     0.13800
C375        C  0.68781217  0.41789192  0.43811922     0.19900
C376        C  0.67159250  0.44641948  0.44745065    -0.18200
C377        C  0.63987562  0.44475585  0.45981964    -0.10500
C378        C  0.62374961  0.41429003  0.46379333     0.22100
C379        C  0.63938929  0.38577859  0.45348653    -0.19900
C380        C  0.67122718  0.38744816  0.44091267    -0.10700
C381        C  0.59133874  0.41155383  0.47976524    -0.14900
C382        C  0.58271480  0.43250730  0.50253070    -0.28700
C383        C  0.72230468  0.42139094  0.42690403    -0.03000
C384        C  0.73911538  0.39809836  0.41174771    -0.39500
H385        H  0.68360025  0.47020746  0.44531121     0.13300
H386        H  0.62816301  0.46744852  0.46630956     0.12900
H387        H  0.62740294  0.36204402  0.45616954     0.12300
H388        H  0.68289385  0.36478491  0.43437779     0.12600
H389        H  0.57565920  0.39043409  0.47487171     0.15300
H390        H  0.59993052  0.45202568  0.50861024     0.14100
H391        H  0.73444882  0.44486470  0.43109561     0.11800
H392        H  0.72779251  0.37465992  0.40615777     0.13800
C393        C  0.05765522  0.03391870  0.57349626     0.19900
C394        C  0.06888307  0.06278463  0.55874495    -0.18200
C395        C  0.06851324  0.09268510  0.57431452    -0.10500
C396        C  0.05699724  0.09449076  0.60530242     0.22100
C397        C  0.04572757  0.06562257  0.62020327    -0.19900
C398        C  0.04613151  0.03551728  0.60454030    -0.10700
C399        C  0.05463878  0.12638676  0.62176034    -0.14900
C400        C  0.07331564  0.15267647  0.61399468    -0.28700
C401        C  0.05648331  0.00357736  0.55452728    -0.03000
C402        C  0.05390576  0.97278841  0.56611975    -0.39500
H403        H  0.07748092  0.06233268  0.53473037     0.13300
H404        H  0.07623065  0.11439861  0.56144967     0.12900
H405        H  0.03626761  0.06644166  0.64389869     0.12300
H406        H  0.03646702  0.01399893  0.61649285     0.12600
H407        H  0.03696386  0.12830081  0.64073283     0.15300
H408        H  0.09233918  0.15081293  0.59632733     0.14100
H409        H  0.05752935  0.00707703  0.52939125     0.11800
H410        H  0.05253616  0.96903343  0.59129440     0.13800
C411        C  0.94552392  0.36020009  0.49334919     0.19900
C412        C  0.98002633  0.36003482  0.49539720    -0.18200
C413        C  0.99586809  0.34457020  0.52067424    -0.10500
C414        C  0.97735585  0.32851828  0.54426380     0.22100
C415        C  0.94283566  0.32847545  0.54187021    -0.19900
C416        C  0.92708053  0.34409436  0.51679909    -0.10700
C417        C  0.99250034  0.31023092  0.57099841    -0.14900
C418        C  0.02479382  0.31055742  0.57847816    -0.28700
C419        C  0.92927248  0.37526489  0.46557825    -0.03000
C420        C  0.89917801  0.38870716  0.46701006    -0.39500
H421        H  0.99475966  0.37184055  0.47732763     0.13300
H422        H  0.02247266  0.34478109  0.52108017     0.12900
H423        H  0.92789733  0.31595652  0.55935520     0.12300
H424        H  0.90047526  0.34269827  0.51540405     0.12600
H425        H  0.97590479  0.29540848  0.58537777     0.15300
H426        H  0.04229303  0.32549333  0.56541288     0.14100
H427        H  0.94229153  0.37497060  0.44335617     0.11800
H428        H  0.88683061  0.39087011  0.48943233     0.13800
C429        C  0.22577937  0.32613997  0.78629710     0.19900
C430        C  0.21826776  0.29258808  0.78414512    -0.18200
C431        C  0.20315360  0.27999898  0.75726345    -0.10500
C432        C  0.19419107  0.30108987  0.73231077     0.22100
C433        C  0.20380346  0.33426832  0.73372314    -0.19900
C434        C  0.21938830  0.34672787  0.76041727    -0.10700
C435        C  0.17161060  0.29083361  0.70645840    -0.14900
C436        C  0.15342555  0.26304449  0.70733379    -0.28700
C437        C  0.23615022  0.33972379  0.81692868    -0.03000
C438        C  0.25520044  0.36671742  0.81967027    -0.39500
H439        H  0.22319452  0.27623331  0.80373993     0.13300
H440        H  0.19756325  0.25403467  0.75694682     0.12900
H441        H  0.19745828  0.35109372  0.71488782     0.12300
H442        H  0.22439279  0.37284641  0.76150003     0.12600
H443        H  0.16642344  0.30882637  0.68816024     0.15300
H444        H  0.15726558  0.24468865  0.72544075     0.14100
H445        H  0.22664733  0.32773663  0.83795501     0.11800
H446        H  0.26664124  0.37774589  0.79909895     0.13800
C447        C  0.18055384  0.54217754  0.84172139     0.19900
C448        C  0.14893555  0.55538833  0.84471065    -0.18200
C449        C  0.13622283  0.57621124  0.82143878    -0.10500
C450        C  0.15481131  0.58363096  0.79444888     0.22100
C451        C  0.18659095  0.57083550  0.79175738    -0.19900
C452        C  0.19945021  0.55049500  0.81516488    -0.10700
C453        C  0.14040376  0.60072146  0.76693166    -0.14900
C454        C  0.11569085  0.62236036  0.76852910    -0.28700
C455        C  0.19191217  0.51682962  0.86438938    -0.03000
C456        C  0.22397993  0.51219388  0.87070787    -0.39500
H457        H  0.13372828  0.54886784  0.86468677     0.13300
H458        H  0.11126273  0.58490657  0.82383910     0.12900
H459        H  0.20113375  0.57573284  0.77094176     0.12300
H460        H  0.22347234  0.53990587  0.81153112     0.12600
H461        H  0.15009437  0.59433707  0.74406113     0.15300
H462        H  0.10681485  0.63077305  0.79102651     0.14100
H463        H  0.17354607  0.50038237  0.87461292     0.11800
H464        H  0.24227791  0.52946370  0.86172311     0.13800
C465        C  0.47375925  0.42081522  0.00125916     0.19900
C466        C  0.44324924  0.42192998  0.01664978    -0.18200
C467        C  0.41380737  0.42286810  0.99962506    -0.10500
C468        C  0.41426983  0.42266079  0.96667379     0.22100
C469        C  0.44466995  0.42133465  0.95124678    -0.19900
C470        C  0.47415404  0.42056206  0.96826054    -0.10700
C471        C  0.38354559  0.42166449  0.94779208    -0.14900
C472        C  0.35504195  0.43461349  0.95745861    -0.28700
C473        C  0.50415723  0.41878033  0.02069814    -0.03000
C474        C  0.53512707  0.42335079  0.00992365    -0.39500
H475        H  0.44214992  0.42177445  0.04202777     0.13300
H476        H  0.39079485  0.42280148  0.01236057     0.12900
H477        H  0.44559544  0.42069538  0.92588008     0.12300
H478        H  0.49690588  0.41896700  0.95533115     0.12600
H479        H  0.38458036  0.41015620  0.92492709     0.15300
H480        H  0.35388886  0.44771996  0.97946555     0.14100
H481        H  0.50096362  0.41405549  0.04564215     0.11800
H482        H  0.53937782  0.42928563  0.98543723     0.13800
C483        C  0.19912505  0.34356442  0.32595723     0.19900
C484        C  0.17494914  0.31972725  0.33280577    -0.18200
C485        C  0.16419210  0.29776073  0.30978360    -0.10500
C486        C  0.17727799  0.29948063  0.27926032     0.22100
C487        C  0.20198140  0.32280744  0.27268615    -0.19900
C488        C  0.21286589  0.34456152  0.29569560    -0.10700
C489        C  0.16296419  0.28059800  0.25279007    -0.14900
C490        C  0.14507089  0.25284248  0.25622735    -0.28700
C491        C  0.20696985  0.36921006  0.34949437    -0.03000
C492        C  0.23545496  0.38631029  0.34934806    -0.39500
H493        H  0.16364939  0.31874236  0.35577634     0.13300
H494        H  0.14445431  0.28077681  0.31559280     0.12900
H495        H  0.21208981  0.32500978  0.24927054     0.12300
H496        H  0.23074062  0.36319903  0.28906899     0.12600
H497        H  0.16600283  0.29104934  0.22941693     0.15300
H498        H  0.14275848  0.24098574  0.27899894     0.14100
H499        H  0.18819626  0.37504636  0.36663245     0.11800
H500        H  0.25507651  0.37968960  0.33345687     0.13800
C501        C  0.94381164  0.27745440  0.24302253     0.19900
C502        C  0.92554487  0.30459795  0.23268095    -0.18200
C503        C  0.90288322  0.31958649  0.25245814    -0.10500
C504        C  0.89825872  0.30785470  0.28329800     0.22100
C505        C  0.91502988  0.27959260  0.29297227    -0.19900
C506        C  0.93762999  0.26460294  0.27324512    -0.10700
C507        C  0.87835415  0.32537390  0.30695787    -0.14900
C508        C  0.87022019  0.35719153  0.30434629    -0.28700
C509        C  0.97067418  0.26524619  0.22258782    -0.03000
C510        C  0.98913379  0.23882595  0.22930633    -0.39500
H511        H  0.92946818  0.31485341  0.20945132     0.13300
H512        H  0.88965324  0.34059710  0.24354443     0.12900
H513        H  0.91177401  0.26986292  0.31649801     0.12300
H514        H  0.95087997  0.24386482  0.28259211     0.12600
H515        H  0.87347863  0.31265898  0.32900580     0.15300
H516        H  0.87559787  0.37111169  0.28318728     0.14100
H517        H  0.97674102  0.27981400  0.20187887     0.11800
H518        H  0.98377560  0.22320094  0.24932016     0.13800
C519        C  0.05728080  0.07541512  0.10793138     0.19900
C520        C  0.03713790  0.07136553  0.08143681    -0.18200
C521        C  0.03742815  0.04216409  0.06446242    -0.10500
C522        C  0.05754530  0.01588964  0.07397996     0.22100
C523        C  0.07742621  0.01980490  0.10073368    -0.19900
C524        C  0.07724329  0.04913123  0.11764804    -0.10700
C525        C  0.05957057  0.98468193  0.05607817    -0.14900
C526        C  0.03704261  0.97484809  0.03468215    -0.28700
C527        C  0.05660851  0.10742362  0.12449802    -0.03000
C528        C  0.08134461  0.11886017  0.14259897    -0.39500
H529        H  0.02157212  0.09121136  0.07338994     0.13300
H530        H  0.02239628  0.04083686  0.04356743     0.12900
H531        H  0.09317402  0.00004025  0.10862416     0.12300
H532        H  0.09252581  0.05090284  0.13837888     0.12600
H533        H  0.08052544  0.96891827  0.06069872     0.15300
H534        H  0.01535133  0.98959843  0.03060258     0.14100
H535        H  0.03561626  0.12317910  0.11999498     0.11800
H536        H  0.10332852  0.10442666  0.14642571     0.13800
C537        C  0.17427846  0.34108006  0.01547820     0.19900
C538        C  0.14842004  0.35213609  0.03428194    -0.18200
C539        C  0.13407208  0.33143920  0.05686988    -0.10500
C540        C  0.14520134  0.29901588  0.06083750     0.22100
C541        C  0.17063464  0.28784521  0.04163834    -0.19900
C542        C  0.18485347  0.30842987  0.01906565    -0.10700
C543        C  0.13257675  0.27647278  0.08564488    -0.14900
C544        C  0.10469342  0.28098146  0.10191643    -0.28700
C545        C  0.18911521  0.36394046  0.99199866    -0.03000
C546        C  0.21907686  0.35938310  0.97958319    -0.39500
H547        H  0.13965966  0.37707783  0.03185401     0.13300
H548        H  0.11496952  0.34131925  0.07152349     0.12900
H549        H  0.17959739  0.26297260  0.04409860     0.12300
H550        H  0.20376912  0.29831777  0.00433990     0.12600
H551        H  0.14738683  0.25502248  0.09100269     0.15300
H552        H  0.08856297  0.30138994  0.09673313     0.14100
H553        H  0.17510495  0.38541435  0.98499145     0.11800
H554        H  0.23414166  0.33890022  0.98701885     0.13800
C555        C  0.63914565  0.08470064  0.72688586     0.19900
C556        C  0.65591374  0.05545751  0.72082628    -0.18200
C557        C  0.67910630  0.04316796  0.74218136    -0.10500
C558        C  0.68584407  0.05988115  0.77029859     0.22100
C559        C  0.66996978  0.08974009  0.77572497    -0.19900
C560        C  0.64691804  0.10204105  0.75438693    -0.10700
C561        C  0.70532505  0.04512722  0.79639137    -0.14900
C562        C  0.72495764  0.01884723  0.79365518    -0.28700
C563        C  0.61100784  0.09420923  0.70635022    -0.03000
C564        C  0.59851113  0.12468311  0.70545199    -0.39500
H565        H  0.65013577  0.04140673  0.70003830     0.13300
H566        H  0.69014089  0.01974092  0.73725581     0.12900
H567        H  0.67431127  0.10293331  0.79732169     0.12300
H568        H  0.63396783  0.12410887  0.76059001     0.12600
H569        H  0.70124334  0.05502740  0.81963900     0.15300
H570        H  0.73054957  0.00881583  0.77084536     0.14100
H571        H  0.59889000  0.07489073  0.69304164     0.11800
H572        H  0.61087742  0.14460734  0.71758620     0.13800
C573        C  0.66063385  0.77006330  0.78166255     0.19900
C574        C  0.64918566  0.78237235  0.81018648    -0.18200
C575        C  0.66768631  0.80541892  0.82686440    -0.10500
C576        C  0.69798417  0.81705792  0.81506466     0.22100
C577        C  0.71056576  0.80301723  0.78769907    -0.19900
C578        C  0.69204565  0.77981593  0.77100113    -0.10700
C579        C  0.71613215  0.84491390  0.82964178    -0.14900
C580        C  0.70096018  0.86812280  0.84641729    -0.28700
C581        C  0.63693233  0.75179783  0.76169155    -0.03000
C582        C  0.64494232  0.73443027  0.73620104    -0.39500
H583        H  0.62514909  0.77513655  0.81898609     0.13300
H584        H  0.65773600  0.81454574  0.84856238     0.12900
H585        H  0.73399986  0.81132027  0.77829383     0.12300
H586        H  0.70155663  0.77127656  0.74890297     0.12600
H587        H  0.74207441  0.84809667  0.82400849     0.15300
H588        H  0.67467409  0.86653405  0.85075157     0.14100
H589        H  0.61096993  0.75527050  0.76683941     0.11800
H590        H  0.67036766  0.72855561  0.73107432     0.13800
C591        C  0.89673313  0.94037440  0.93962581     0.19900
C592        C  0.92408104  0.92070580  0.93320553    -0.18200
C593        C  0.95143446  0.92064190  0.95336135    -0.10500
C594        C  0.95151622  0.93976480  0.98067993     0.22100
C595        C  0.92376006  0.95858905  0.98752904    -0.19900
C596        C  0.89677448  0.95914265  0.96714409    -0.10700
C597        C  0.97976068  0.94035546  0.00285813    -0.14900
C598        C  0.01137381  0.93907877  0.99340321    -0.28700
C599        C  0.86740068  0.93929311  0.91872041    -0.03000
C600        C  0.84794726  0.96549930  0.91420029    -0.39500
H601        H  0.92431120  0.90550517  0.91250332     0.13300
H602        H  0.97215523  0.90519081  0.94788019     0.12900
H603        H  0.92307875  0.97317084  0.00863011     0.12300
H604        H  0.87561333  0.97364846  0.97339428     0.12600
H605        H  0.97437708  0.94551573  0.02717472     0.15300
H606        H  0.01606291  0.93690026  0.96844096     0.14100
H607        H  0.86129348  0.91620313  0.90741765     0.11800
H608        H  0.85494801  0.98905796  0.92407006     0.13800
C609        C  0.67922387  0.05149858  0.27604092     0.19900
C610        C  0.66680701  0.03411838  0.30202657    -0.18200
C611        C  0.68648109  0.01200277  0.31852671    -0.10500
C612        C  0.71928367  0.00680463  0.30943963     0.22100
C613        C  0.73197604  0.02458165  0.28377218    -0.19900
C614        C  0.71224086  0.04681885  0.26723265    -0.10700
C615        C  0.73975021  0.98093974  0.32428760    -0.14900
C616        C  0.73401913  0.96868511  0.35316093    -0.28700
C617        C  0.65578653  0.07137158  0.25722267    -0.03000
C618        C  0.66440681  0.09332887  0.23491444    -0.39500
H619        H  0.64136124  0.03689633  0.30904984     0.13300
H620        H  0.67529567  0.99805960  0.33743761     0.12900
H621        H  0.75702027  0.02066833  0.27603667     0.12300
H622        H  0.72260867  0.05908058  0.24691671     0.12600
H623        H  0.75973091  0.97096694  0.31050729     0.15300
H624        H  0.71523529  0.97911577  0.36798715     0.14100
H625        H  0.62971916  0.06684990  0.26143192     0.11800
H626        H  0.69002834  0.09966183  0.23070289     0.13800
C627        C  0.40439442  0.05543203  0.28055705     0.19900
C628        C  0.42233842  0.08405776  0.28745015    -0.18200
C629        C  0.44384673  0.09802366  0.26546437    -0.10500
C630        C  0.44815409  0.08336546  0.23597614     0.22100
C631        C  0.42854402  0.05587826  0.22840520    -0.19900
C632        C  0.40678670  0.04204836  0.25039934    -0.10700
C633        C  0.47559472  0.09301352  0.21446047    -0.14900
C634        C  0.49437459  0.12023656  0.21780968    -0.28700
C635        C  0.38789736  0.03758603  0.30669295    -0.03000
C636        C  0.36247996  0.01648387  0.30324116    -0.39500
H637        H  0.42097832  0.09474483  0.31058151     0.13300
H638        H  0.45842634  0.11893372  0.27272318     0.12900
H639        H  0.43133636  0.04398787  0.20596042     0.12300
H640        H  0.39371072  0.01966193  0.24446370     0.12600
H641        H  0.48212734  0.07562432  0.19636667     0.15300
H642        H  0.48804237  0.13881135  0.23471627     0.14100
H643        H  0.39800264  0.04136756  0.33004383     0.11800
H644        H  0.35022355  0.01384590  0.28073685     0.13800
C645        C  0.59359627  0.34426109  0.07843971     0.19900
C646        C  0.60809039  0.33839120  0.10784997    -0.18200
C647        C  0.61082371  0.30631423  0.11968603    -0.10500
C648        C  0.59928209  0.27944953  0.10206633     0.22100
C649        C  0.58590246  0.28535662  0.07221387    -0.19900
C650        C  0.58306532  0.31729342  0.06049863    -0.10700
C651        C  0.60046099  0.24489071  0.11348846    -0.14900
C652        C  0.60339151  0.23585924  0.14379189    -0.28700
C653        C  0.59071622  0.37852876  0.06652305    -0.06600
C654        C  0.56699074  0.38766173  0.04617969    -0.39500
H655        H  0.61699738  0.35871305  0.12183566     0.13300
H656        H  0.62219352  0.30279590  0.14239949     0.12900
H657        H  0.57729637  0.26513585  0.05792262     0.12300
H658        H  0.57307446  0.32062962  0.03716077     0.12600
H659        H  0.59639507  0.22586531  0.09614285     0.15300
H660        H  0.60643192  0.25402588  0.16201409     0.14100
H661        H  0.60813861  0.39686265  0.07497547     0.11800
H662        H  0.54864406  0.36962398  0.03901533     0.13800
C663        C  0.63940733  0.04395045  0.05195412     0.19900
C664        C  0.66793768  0.02476741  0.05157280    -0.18200
C665        C  0.67954211  0.01164628  0.02364722    -0.10500
C666        C  0.66271616  0.01728881  0.99527834     0.22100
C667        C  0.63400607  0.03617736  0.99557556    -0.19900
C668        C  0.62232325  0.04931047  0.02358208    -0.10700
C669        C  0.67601584  0.00620536  0.96481891    -0.14900
C670        C  0.69660297  0.98070944  0.96221257    -0.28700
C671        C  0.63009480  0.05946606  0.08206504    -0.03000
C672        C  0.60267810  0.07709391  0.08666138    -0.39500
H673        H  0.68185174  0.02053890  0.07291971     0.13300
H674        H  0.70238748  0.99821778  0.02432746     0.12900
H675        H  0.62084462  0.04121728  0.97396005     0.12300
H676        H  0.60054072  0.06428030  0.02245309     0.12600
H677        H  0.66909146  0.01994683  0.94389652     0.15300
H678        H  0.70245492  0.96553464  0.98245630     0.14100
H679        H  0.64752199  0.05713061  0.10134886     0.11800
H680        H  0.58422869  0.07979468  0.06846286     0.13800
C681        C  0.44395439  0.78033302  0.74164877     0.19900
C682        C  0.42402357  0.80737792  0.73455241    -0.18200
C683        C  0.40290743  0.82026670  0.75710705    -0.10500
C684        C  0.40169275  0.80659472  0.78753377     0.22100
C685        C  0.42069333  0.77879249  0.79421485    -0.19900
C686        C  0.44175148  0.76589679  0.77168716    -0.10700
C687        C  0.38218252  0.82118052  0.81333759    -0.14900
C688        C  0.37300795  0.85283934  0.81369527    -0.28700
C689        C  0.46877570  0.76980909  0.71831718    -0.03000
C690        C  0.48307448  0.74014893  0.71889959    -0.39500
H691        H  0.42518137  0.81891913  0.71159474     0.13300
H692        H  0.38790896  0.84103970  0.75060223     0.12900
H693        H  0.42022760  0.76773159  0.81740442     0.12300
H694        H  0.45722156  0.74558138  0.77850221     0.12600
H695        H  0.37778345  0.80608886  0.83408024     0.15300
H696        H  0.37853657  0.86899906  0.79403876     0.14100
H697        H  0.47637533  0.78766717  0.70061384     0.11800
H698        H  0.47499245  0.72136220  0.73540067     0.13800
C699        C  0.42906634  0.07655820  0.79544635     0.19900
C700        C  0.44406998  0.05915572  0.82000493    -0.18200
C701        C  0.42512068  0.04088782  0.84126230    -0.10500
C702        C  0.39056589  0.03940446  0.83813859     0.22100
C703        C  0.37552169  0.05814438  0.81440888    -0.19900
C704        C  0.39450197  0.07653356  0.79323775    -0.10700
C705        C  0.36995779  0.01500603  0.85549581    -0.14900
C706        C  0.38101571  0.99610502  0.87923858    -0.28700
C707        C  0.45018538  0.09110806  0.77063099    -0.03000
C708        C  0.44070911  0.11586912  0.75177499    -0.39500
H709        H  0.47068156  0.05866277  0.82203328     0.13300
H710        H  0.43803185  0.02659711  0.85873744     0.12900
H711        H  0.34903570  0.05720708  0.81120304     0.12300
H712        H  0.38208229  0.08901370  0.77416157     0.12600
H713        H  0.34564665  0.00979206  0.84585775     0.15300
H714        H  0.40461528  0.00094130  0.89027155     0.14100
H715        H  0.47441120  0.08049300  0.76740844     0.11800
H716        H  0.41759212  0.12833227  0.75568644     0.13800
C717        C  0.11480702  0.92450349  0.95978237     0.19900
C718        C  0.12803120  0.89486947  0.94915422    -0.18200
C719        C  0.15988784  0.89389992  0.93674357    -0.10500
C720        C  0.17908683  0.92277838  0.93447149     0.22100
C721        C  0.16523911  0.95259312  0.94369786    -0.19900
C722        C  0.13340916  0.95358519  0.95592391    -0.10700
C723        C  0.21432288  0.92285408  0.92514013    -0.14900
C724        C  0.22934875  0.89827009  0.91007738    -0.28700
C725        C  0.08239237  0.92363899  0.97599086    -0.03000
C726        C  0.07202415  0.94731859  0.99553279    -0.39500
H727        H  0.11416331  0.87213297  0.95160340     0.13300
H728        H  0.16968555  0.87032353  0.93029734     0.12900
H729        H  0.17936111  0.97524201  0.94194382     0.12300
H730        H  0.12386320  0.97719869  0.96253634     0.12600
H731        H  0.22884801  0.94435374  0.93153890     0.15300
H732        H  0.21561425  0.87693051  0.90216261     0.14100
H733        H  0.06755755  0.90138631  0.97394579     0.11800
H734        H  0.08691084  0.96930628  0.99855994     0.13800
C735        C  0.39425601  0.81940405  0.32355965     0.19900
C736        C  0.42005719  0.79809205  0.33145411    -0.18200
C737        C  0.43414417  0.77805578  0.30862587    -0.10500
C738        C  0.42300827  0.77965307  0.27738989     0.22100
C739        C  0.39636986  0.79988033  0.26989317    -0.19900
C740        C  0.38196560  0.81935549  0.29268963    -0.10700
C741        C  0.44140838  0.76464784  0.25133463    -0.14900
C742        C  0.45824599  0.73651188  0.25372336    -0.28700
C743        C  0.38388482  0.84496668  0.34601522    -0.03000
C744        C  0.35390145  0.85867602  0.34472666    -0.39500
H745        H  0.43021303  0.79798095  0.35496614     0.13300
H746        H  0.45508624  0.76311736  0.31497125     0.12900
H747        H  0.38761425  0.80174261  0.24592872     0.12300
H748        H  0.36279003  0.83606465  0.28541089     0.12600
H749        H  0.44110969  0.77764592  0.22895100     0.15300
H750        H  0.45699783  0.72165807  0.27495572     0.14100
H751        H  0.40233004  0.85467334  0.36206120     0.11800
H752        H  0.33478398  0.84793804  0.33008682     0.13800
C753        C  0.65844681  0.75925934  0.24138564     0.19900
C754        C  0.68190813  0.78317918  0.23268914    -0.18200
C755        C  0.70460404  0.79530791  0.25464571    -0.10500
C756        C  0.70402223  0.78373520  0.28587048     0.22100
C757        C  0.68123303  0.75911510  0.29416473    -0.19900
C758        C  0.65866275  0.74709488  0.27235793    -0.10700
C759        C  0.72360697  0.79883164  0.31152576    -0.14900
C760        C  0.74807946  0.82096575  0.30767514    -0.28700
C761        C  0.63180752  0.75014859  0.21902485    -0.03000
C762        C  0.61390771  0.72237359  0.22205951    -0.39500
H763        H  0.68200299  0.79323976  0.20909085     0.13300
H764        H  0.72134877  0.81464613  0.24729350     0.12900
H765        H  0.67992631  0.75002391  0.31808787     0.12300
H766        H  0.64037836  0.72957590  0.28052285     0.12600
H767        H  0.71606615  0.79256906  0.33529806     0.15300
H768        H  0.75737848  0.82730379  0.28459249     0.14100
H769        H  0.62553388  0.76770962  0.20067144     0.11800
H770        H  0.62074565  0.70384109  0.23923607     0.13800
C771        C  0.54941400  0.50497534  0.07383341     0.19900
C772        C  0.52706419  0.53003594  0.06694438    -0.18200
C773        C  0.52389943  0.55668942  0.08696771    -0.10500
C774        C  0.54360703  0.55907960  0.11399666     0.22100
C775        C  0.56584192  0.53386905  0.12106765    -0.19900
C776        C  0.56844350  0.50672062  0.10134671    -0.10700
C777        C  0.54368117  0.58927464  0.13301328    -0.14900
C778        C  0.51632967  0.60685735  0.13771858    -0.28700
C779        C  0.55445483  0.47915430  0.05032581    -0.03000
C780        C  0.56040551  0.44754652  0.05765615    -0.39500
H781        H  0.51245623  0.52927042  0.04565904     0.13300
H782        H  0.50719716  0.57617165  0.08044206     0.12900
H783        H  0.58158772  0.53550511  0.14155082     0.12300
H784        H  0.58637084  0.48798710  0.10680467     0.12600
H785        H  0.56704434  0.59767407  0.14272713     0.15300
H786        H  0.49248548  0.59747458  0.13016180     0.14100
H787        H  0.55175715  0.48614101  0.02580352     0.11800
H788        H  0.56113147  0.43994152  0.08213237     0.13800
C789        C  0.41555243  0.82002888  0.01062479     0.19900
C790        C  0.44460366  0.80196856  0.00710315    -0.18200
C791        C  0.45853844  0.78524573  0.03255739    -0.10500
C792        C  0.44355717  0.78617094  0.06217331     0.22100
C793        C  0.41438046  0.80390659  0.06571443    -0.19900
C794        C  0.40052172  0.82078082  0.04032628    -0.10700
C795        C  0.45653890  0.76753918  0.08944880    -0.14900
C796        C  0.48854432  0.76018357  0.09343561    -0.28700
C797        C  0.40133350  0.83640012  0.98242030    -0.03000
C798        C  0.37675392  0.85833485  0.98305267    -0.39500
H799        H  0.45648106  0.80056559  0.98444934     0.13300
H800        H  0.48049968  0.77099111  0.02875886     0.12900
H801        H  0.40216325  0.80460491  0.08824763     0.12300
H802        H  0.37774947  0.83360796  0.04416286     0.12600
H803        H  0.43903002  0.76059721  0.10763903     0.15300
H804        H  0.50690342  0.76858923  0.07666440     0.14100
H805        H  0.41188042  0.83016113  0.95987055     0.11800
H806        H  0.36609771  0.86611491  0.00498054     0.13800
C807        C  0.90173015  0.55678156  0.33032556     0.19900
C808        C  0.93234613  0.57153399  0.33697277    -0.18200
C809        C  0.94522500  0.59639892  0.31760546    -0.10500
C810        C  0.92767519  0.60699595  0.29088271     0.22100
C811        C  0.89632719  0.59341382  0.28522520    -0.19900
C812        C  0.88351338  0.56855146  0.30450760    -0.10700
C813        C  0.94209421  0.62892634  0.26625950    -0.14900
C814        C  0.97306277  0.64103991  0.26655227    -0.28700
C815        C  0.89140509  0.52734352  0.34896172    -0.03000
C816        C  0.86129066  0.51328733  0.34746079    -0.39500
H817        H  0.94693088  0.56300880  0.35668849     0.13300
H818        H  0.96935343  0.60609034  0.32321641     0.12900
H819        H  0.88223149  0.60095881  0.26482885     0.12300
H820        H  0.86010093  0.55779146  0.29797056     0.12600
H821        H  0.92747643  0.63240793  0.24510643     0.15300
H822        H  0.98866811  0.63867740  0.28706295     0.14100
H823        H  0.91008582  0.51576232  0.36351849     0.11800
H824        H  0.84165757  0.52444859  0.33396318     0.13800
C825        C  0.19365634  0.56282370  0.28115986     0.19900
C826        C  0.17533609  0.54979278  0.25618340    -0.18200
C827        C  0.15726733  0.57017765  0.23621481    -0.10500
C828        C  0.15706177  0.60441174  0.24073811     0.22100
C829        C  0.17711418  0.61763831  0.26447278    -0.19900
C830        C  0.19520493  0.59718046  0.28451442    -0.10700
C831        C  0.13346223  0.62656553  0.22426241    -0.14900
C832        C  0.11275539  0.61680827  0.20137878    -0.28700
C833        C  0.20786677  0.53939194  0.30441113    -0.03000
C834        C  0.22684413  0.54781827  0.32904561    -0.39500
H835        H  0.17380155  0.52346927  0.25286958     0.13300
H836        H  0.14239241  0.55846857  0.21845883     0.12900
H837        H  0.17757440  0.64386608  0.26852189     0.12300
H838        H  0.20895630  0.60851658  0.30330139     0.12600
H839        H  0.13079397  0.65117946  0.23353122     0.15300
H840        H  0.11476125  0.59275853  0.19101550     0.14100
H841        H  0.20106748  0.51366029  0.30179049     0.11800
H842        H  0.23525371  0.57288419  0.33229008     0.13800
C843        C  0.03600759  0.81784323  0.11703414     0.19900
C844        C  0.06381481  0.83388147  0.10450461    -0.18200
C845        C  0.06054904  0.86265997  0.08668889    -0.10500
C846        C  0.02918777  0.87578364  0.08056729     0.22100
C847        C  0.00146875  0.86027218  0.09376606    -0.19900
C848        C  0.00472058  0.83148228  0.11158606    -0.10700
C849        C  0.02445159  0.90541452  0.06048620    -0.14900
C850        C  0.04512009  0.91363093  0.03698892    -0.28700
C851        C  0.04040985  0.78573430  0.13335823    -0.03000
C852        C  0.01773949  0.77191161  0.15242921    -0.39500
H853        H  0.08818285  0.82395939  0.10832851     0.13300
H854        H  0.08265828  0.87452749  0.07789627     0.12900
H855        H  0.97707416  0.86992715  0.08947658     0.12300
H856        H  0.98252589  0.81953712  0.12001930     0.12600
H857        H  0.00288392  0.92017615  0.06467687     0.15300
H858        H  0.06636733  0.89821751  0.03313337     0.14100
H859        H  0.06286176  0.77237594  0.12851618     0.11800
H860        H  0.99556172  0.78500356  0.15851292     0.13800
C861        C  0.89870940  0.54215799  0.79475322     0.19900
C862        C  0.90555756  0.57594376  0.79563771    -0.18200
C863        C  0.92377206  0.59123249  0.77181064    -0.10500
C864        C  0.93576539  0.57286746  0.74652654     0.22100
C865        C  0.92747716  0.53936893  0.74487970    -0.19900
C866        C  0.90911810  0.52411195  0.76866892    -0.10700
C867        C  0.96072313  0.58630509  0.72425499    -0.14900
C868        C  0.96798264  0.61846449  0.72095098    -0.28700
C869        C  0.88522497  0.52595027  0.82331716    -0.03000
C870        C  0.87059018  0.49619965  0.82353511    -0.39500
H871        H  0.89810595  0.59030477  0.81562185     0.13300
H872        H  0.93002197  0.61688810  0.77455653     0.12900
H873        H  0.93665204  0.52455163  0.72588882     0.12300
H874        H  0.90507567  0.49786727  0.76744370     0.12600
H875        H  0.97572963  0.56860460  0.71198235     0.15300
H876        H  0.95294002  0.63694594  0.73189258     0.14100
H877        H  0.88937106  0.53834063  0.84547249     0.11800
H878        H  0.86468315  0.48389492  0.80174833     0.13800
C879        C  0.98213952  0.30180472  0.78026665     0.19900
C880        C  0.99614329  0.31910560  0.80534038    -0.18200
C881        C  0.97639303  0.33221221  0.82878982    -0.10500
C882        C  0.94184884  0.32861439  0.82753092     0.22100
C883        C  0.92795376  0.31024844  0.80296368    -0.19900
C884        C  0.94778727  0.29700013  0.77954931    -0.10700
C885        C  0.91920618  0.34572151  0.84940076    -0.14900
C886        C  0.92910137  0.36649632  0.87207094    -0.28700
C887        C  0.00399577  0.29181736  0.75423809    -0.03000
C888        C  0.99636563  0.26868556  0.73302629    -0.39500
H889        H  0.02254314  0.32315421  0.80644714     0.13300
H890        H  0.98858354  0.34580467  0.84712918     0.12900
H891        H  0.90147903  0.30711720  0.80122226     0.12300
H892        H  0.93592208  0.28436463  0.76033008     0.12600
H893        H  0.89294546  0.34333633  0.84475669     0.15300
H894        H  0.95493157  0.37019946  0.87738776     0.14100
H895        H  0.02774689  0.30427102  0.75251182     0.11800
H896        H  0.97377019  0.25438882  0.73495637     0.13800
C897        C  0.70264630  0.42834126  0.94806435     0.19900
C898        C  0.68251478  0.45488872  0.95582707    -0.18200
C899        C  0.65171214  0.44954053  0.96971676    -0.10500
C900        C  0.64023489  0.41740192  0.97571672     0.22100
C901        C  0.65963890  0.39085269  0.96661047    -0.19900
C902        C  0.69060265  0.39618672  0.95306386    -0.10700
C903        C  0.60816259  0.41079256  0.99130091    -0.14900
C904        C  0.59640097  0.43009321  0.01408873    -0.28700
C905        C  0.73599252  0.43513160  0.93499433    -0.03000
C906        C  0.76139686  0.41440310  0.93856100    -0.39500
H907        H  0.69094618  0.47987743  0.95173280     0.13300
H908        H  0.63686800  0.47054495  0.97556761     0.12900
H909        H  0.65107093  0.36588390  0.97055452     0.12300
H910        H  0.70485967  0.37508229  0.94638371     0.12600
H911        H  0.59506152  0.38818295  0.98570312     0.15300
H912        H  0.61073870  0.45152795  0.02102560     0.14100
H913        H  0.74036913  0.45896808  0.92403285     0.11800
H914        H  0.75805699  0.39128407  0.95102560     0.13800
C915        C  0.94633014  0.57595657  0.07098953     0.19900
C916        C  0.92788457  0.54704155  0.07625563    -0.18200
C917        C  0.91591862  0.52840464  0.05114185    -0.10500
C918        C  0.92199383  0.53843672  0.02003758     0.22100
C919        C  0.93980980  0.56766052  0.01474165    -0.19900
C920        C  0.95190842  0.58620191  0.03980670    -0.10700
C921        C  0.90878567  0.52020133  0.99255239    -0.14900
C922        C  0.90134635  0.48787485  0.99284988    -0.28700
C923        C  0.95864686  0.59482399  0.09860403    -0.03000
C924        C  0.98258373  0.61798196  0.09712689    -0.39500
H925        H  0.92273967  0.53876399  0.09995844     0.13300
H926        H  0.90138694  0.50661073  0.05622365     0.12900
H927        H  0.94437917  0.57624657  0.99102290     0.12300
H928        H  0.96502307  0.60874922  0.03443608     0.12600
H929        H  0.90603212  0.53391456  0.97073597     0.15300
H930        H  0.90564709  0.47309809  0.01372328     0.14100
H931        H  0.94835036  0.58849964  0.12138327     0.11800
H932        H  0.99436533  0.62404262  0.07505009     0.13800
loop_ 
_geom_bond_atom_site_label_1 
_geom_bond_atom_site_label_2 
_geom_bond_distance 
_geom_bond_site_symmetry_2 
_ccdc_geom_bond_type 
O1            C4   1.264       .  A
O1           Cd6   2.468       .  S
C2           O11   1.265       .  A
C2            O7   1.266       .  A
C2          C922   1.480       .  S
O3            C9   1.264       .  A
O3           Cd6   2.475       .  S
C4           O12   1.265       .  A
C4          C886   1.475       .  S
C5           O10   1.265       .  A
C5            O8   1.264       .  A
C5          C906   1.476       .  S
Cd6          O13   2.454       .  S
Cd6          O12   2.477       .  S
Cd6          O11   2.464       .  S
Cd6           O7   2.488       .  S
Cd6          O10   2.480       .  S
Cd6           O8   2.469       .  S
C9           O13   1.265       .  A
C9          C870   1.474       .  S
O14          C17   1.265   1_455  A
O14         Cd19   2.471       .  S
C15          O24   1.267       .  A
C15          O20   1.263       .  A
C15         C832   1.474       .  S
O16          C22   1.263   1_655  A
O16         Cd19   2.474   1_655  S
C17          O25   1.266       .  A
C17         C924   1.479       .  S
C18          O23   1.264   1_655  A
C18          O21   1.266       .  A
C18         C814   1.476       .  S
Cd19         O26   2.475       .  S
Cd19         O25   2.489   1_455  S
Cd19         O24   2.481       .  S
Cd19         O20   2.451       .  S
Cd19         O23   2.475       .  S
Cd19         O21   2.461   1_455  S
C22          O26   1.264       .  A
C22         C852   1.475       .  S
O27          C30   1.268       .  A
O27         Cd32   2.480       .  S
C28          O37   1.264       .  A
C28          O33   1.267       .  A
C28         C796   1.475       .  S
O29          C35   1.264       .  A
O29         Cd32   2.470       .  S
C30          O38   1.263       .  A
C30         C762   1.470       .  S
C31          O36   1.265       .  A
C31          O34   1.264       .  A
C31         C742   1.476       .  S
Cd32         O39   2.452       .  S
Cd32         O38   2.434       .  S
Cd32         O37   2.437       .  S
Cd32         O33   2.488       .  S
Cd32         O36   2.491       .  S
Cd32         O34   2.446       .  S
C35          O39   1.264       .  A
C35         C778   1.470       .  S
O40          C43   1.265       .  A
O40         Cd45   2.448       .  S
C41          O50   1.263       .  A
C41          O46   1.265       .  A
C41         C798   1.474       .  S
O42          C48   1.265       .  A
O42         Cd45   2.494       .  S
C43          O51   1.265       .  A
C43         C706   1.472       .  S
C44          O49   1.263       .  A
C44          O47   1.267       .  A
C44         C688   1.476       .  S
Cd45         O52   2.444       .  S
Cd45         O51   2.469       .  S
Cd45         O50   2.472       .  S
Cd45         O46   2.462       .  S
Cd45         O49   2.461       .  S
Cd45         O47   2.486       .  S
C48          O52   1.263       .  A
C48         C724   1.476       .  S
O53          C56   1.265       .  A
O53         Cd58   2.485       .  S
C54          O63   1.265       .  A
C54          O59   1.265       .  A
C54         C672   1.474       .  S
O55          C61   1.264       .  A
O55         Cd58   2.488       .  S
C56          O64   1.264       .  A
C56         C634   1.477       .  S
C57          O62   1.264       .  A
C57          O60   1.265       .  A
C57         C618   1.475       .  S
Cd58         O65   2.452       .  S
Cd58         O64   2.473       .  S
Cd58         O63   2.473       .  S
Cd58         O59   2.450       .  S
Cd58         O62   2.487       .  S
Cd58         O60   2.445       .  S
C61          O65   1.264       .  A
C61         C652   1.477       .  S
O66          C69   1.263       .  A
O66         Cd71   2.448       .  S
C67          O76   1.266       .  A
C67          O72   1.264       .  A
C67         C670   1.471       .  S
O68          C74   1.263       .  A
O68         Cd71   2.469       .  S
C69          O77   1.267       .  A
C69         C580   1.472       .  S
C70          O75   1.264   1_545  A
C70          O73   1.264       .  A
C70         C562   1.478       .  S
Cd71         O78   2.486       .  S
Cd71         O77   2.478       .  S
Cd71         O76   2.461       .  S
Cd71         O72   2.458       .  S
Cd71         O75   2.489       .  S
Cd71         O73   2.461   1_565  S
C74          O78   1.265       .  A
C74         C600   1.476       .  S
O79          C82   1.266       .  A
O79         Cd84   2.470       .  S
C80          O89   1.267       .  A
C80          O85   1.266       .  A
C80         C544   1.473       .  S
O81          C87   1.263       .  A
O81         Cd84   2.466       .  S
C82          O90   1.263       .  A
C82         C510   1.471   1_455  S
C83          O88   1.265       .  A
C83          O86   1.265       .  A
C83         C528   1.478       .  S
Cd84         O91   2.485       .  S
Cd84         O90   2.447       .  S
Cd84         O89   2.439       .  S
Cd84         O85   2.470       .  S
Cd84         O88   2.480       .  S
Cd84         O86   2.471       .  S
C87          O91   1.263       .  A
C87         C490   1.476       .  S
O92          C95   1.267       .  A
O92         Cd97   2.485       .  S
C93         O102   1.263       .  A
C93          O98   1.270       .  A
C93         C546   1.469       .  S
O94         C100   1.264       .  A
O94         Cd97   2.481       .  S
C95         O103   1.262       .  A
C95         C456   1.473       .  S
C96         O101   1.268       .  A
C96          O99   1.265       .  A
C96         C472   1.473       .  S
Cd97        O104   2.460       .  S
Cd97        O103   2.448       .  S
Cd97        O102   2.421       .  S
Cd97         O98   2.477       .  S
Cd97        O101   2.456       .  S
Cd97         O99   2.452       .  S
C100        O104   1.263       .  A
C100        C438   1.474       .  S
C105        C526   1.531       .  S
C105        C598   1.533   1_554  S
C105        C726   1.529   1_554  S
C105        C850   1.530       .  S
C106        C474   1.528       .  S
C106        C654   1.525       .  S
C106        C780   1.526       .  S
C106        C904   1.527       .  S
O107        C110   1.269       .  A
O107       Cd112   2.486       .  S
C108        O117   1.264       .  A
C108        O113   1.265       .  A
C108        C418   1.479       .  S
O109        C115   1.263       .  A
O109       Cd112   2.448       .  S
C110        O118   1.264       .  A
C110        C436   1.473       .  S
C111        O116   1.265       .  A
C111        O114   1.265       .  A
C111        C888   1.476   1_455  S
Cd112       O119   2.472       .  S
Cd112       O118   2.439       .  S
Cd112       O117   2.460       .  S
Cd112       O113   2.496       .  S
Cd112       O116   2.479       .  S
Cd112       O114   2.448       .  S
C115        O119   1.265       .  A
C115        C400   1.470       .  S
O120        C123   1.264       .  A
O120       Cd125   2.481       .  S
C121        O130   1.264       .  A
C121        O126   1.267       .  A
C121        C816   1.475       .  S
O122        C128   1.262       .  A
O122       Cd125   2.452       .  S
C123        O131   1.263       .  A
C123        C420   1.474       .  S
C124        O129   1.265       .  A
C124        O127   1.265       .  A
C124        C384   1.476       .  S
Cd125       O132   2.469       .  S
Cd125       O131   2.467       .  S
Cd125       O130   2.461       .  S
Cd125       O126   2.470       .  S
Cd125       O129   2.482       .  S
Cd125       O127   2.448       .  S
C128        O132   1.266       .  A
C128        C508   1.472       .  S
O133        C136   1.268       .  A
O133       Cd138   2.458       .  S
C134        O143   1.265       .  A
C134        O139   1.264       .  A
C134        C364   1.474       .  S
O135        C141   1.263       .  A
O135       Cd138   2.418       .  S
C136        O144   1.266       .  A
C136        C690   1.473       .  S
C137        O142   1.267       .  A
C137        O140   1.262       .  A
C137        C346   1.469       .  S
Cd138       O145   2.504       .  S
Cd138       O144   2.450       .  S
Cd138       O143   2.482       .  S
Cd138       O139   2.432       .  S
Cd138       O142   2.471       .  S
Cd138       O140   2.438       .  S
C141        O145   1.266       .  A
C141        C582   1.474       .  S
O146        C149   1.265       .  A
O146       Cd151   2.455       .  S
C147        O156   1.265       .  A
C147        O152   1.264       .  A
C147        C616   1.471       .  S
O148        C154   1.263       .  A
O148       Cd151   2.467       .  S
C149        O157   1.266       .  A
C149        C366   1.471       .  S
C150        O155   1.264       .  A
C150        O153   1.264       .  A
C150        C760   1.475       .  S
Cd151       O158   2.467       .  S
Cd151       O157   2.462       .  S
Cd151       O156   2.452       .  S
Cd151       O152   2.458       .  S
Cd151       O155   2.485       .  S
Cd151       O153   2.438       .  S
C154        O158   1.264       .  A
C154        C330   1.472       .  S
O159        C162   1.266   1_455  A
O159       Cd164   2.461       .  S
C160        O169   1.266       .  A
C160        O165   1.264       .  A
C160        C312   1.474       .  S
O161        C167   1.263       .  A
O161       Cd164   2.468       .  S
C162        O170   1.264   1_655  A
C162        C868   1.475       .  S
C163        O168   1.265       .  A
C163        O166   1.264       .  A
C163        C454   1.474       .  S
Cd164       O171   2.470       .  S
Cd164       O170   2.470       .  S
Cd164       O169   2.478       .  S
Cd164       O165   2.450       .  S
Cd164       O168   2.492       .  S
Cd164       O166   2.438       .  S
C167        O171   1.265       .  A
C167        C294   1.474       .  S
O172        C175   1.268       .  A
O172       Cd177   2.482       .  S
C173        O182   1.262       .  A
C173        O178   1.263       .  A
C173        C310   1.477       .  S
O174        C180   1.264       .  A
O174       Cd177   2.474       .  S
C175        O183   1.264       .  A
C175        C492   1.473       .  S
C176        O181   1.266       .  A
C176        O179   1.265       .  A
C176        C834   1.476       .  S
Cd177       O184   2.448       .  S
Cd177       O183   2.442       .  S
Cd177       O182   2.462       .  S
Cd177       O178   2.496       .  S
Cd177       O181   2.454       .  S
Cd177       O179   2.477       .  S
C180        O184   1.264       .  A
C180        C274   1.471       .  S
O185        C188   1.268       .  A
O185       Cd190   2.483       .  S
C186        O195   1.261       .  A
C186        O191   1.267       .  A
C186        C256   1.471       .  S
O187        C193   1.263       .  A
O187       Cd190   2.475       .  S
C188        O196   1.264       .  A
C188        C564   1.475       .  S
C189        O194   1.266       .  A
C189        O192   1.267       .  A
C189        C238   1.472       .  S
Cd190       O197   2.448       .  S
Cd190       O196   2.452       .  S
Cd190       O195   2.446       .  S
Cd190       O191   2.490       .  S
Cd190       O194   2.465       .  S
Cd190       O192   2.427       .  S
C193        O197   1.263       .  A
C193        C708   1.471       .  S
O198        C201   1.265       .  A
O198       Cd203   2.485       .  S
C199        O208   1.265       .  A
C199        O204   1.265       .  A
C199        C258   1.473       .  S
O200        C206   1.266       .  A
O200       Cd203   2.499       .  S
C201        O209   1.263       .  A
C201        C744   1.473       .  S
C202        O207   1.264       .  A
C202        O205   1.264       .  A
C202        C220   1.472       .  S
Cd203       O210   2.444       .  S
Cd203       O209   2.460       .  S
Cd203       O208   2.447       .  S
Cd203       O204   2.473       .  S
Cd203       O207   2.475       .  S
Cd203       O205   2.443       .  S
C206        O210   1.264       .  A
C206        C636   1.477   1_565  S
C211        C222   1.530       .  S
C211        C292   1.527       .  S
C211        C328   1.525       .  S
C211        C402   1.529       .  S
C212        C240   1.518       .  S
C212        C276   1.535       .  S
C212        C348   1.529       .  S
C212        C382   1.526       .  S
C213        C221   1.485       .  S
C213        C214   1.403       .  A
C213        C218   1.408       .  A
C214        C215   1.398       .  A
C214        H223   1.083       .  S
C215        C216   1.407       .  A
C215        H224   1.081       .  S
C216        C219   1.482       .  S
C216        C217   1.402       .  A
C217        C218   1.395       .  A
C217        H225   1.084       .  S
C218        H226   1.081       .  S
C219        H227   1.087       .  S
C219        C220   1.345       .  D
C220        H228   1.085       .  S
C221        H229   1.083       .  S
C221        C222   1.348       .  D
C222        H230   1.084       .  S
C231        C239   1.486       .  S
C231        C232   1.405       .  A
C231        C236   1.408       .  A
C232        C233   1.399       .  A
C232        H241   1.083       .  S
C233        C234   1.407       .  A
C233        H242   1.081       .  S
C234        C237   1.480       .  S
C234        C235   1.400       .  A
C235        C236   1.392       .  A
C235        H243   1.084       .  S
C236        H244   1.079       .  S
C237        H245   1.087       .  S
C237        C238   1.343       .  D
C238        H246   1.084       .  S
C239        H247   1.087       .  S
C239        C240   1.348       .  D
C240        H248   1.083       .  S
C249        C257   1.485       .  S
C249        C250   1.403       .  A
C249        C254   1.408       .  A
C250        C251   1.396       .  A
C250        H259   1.083       .  S
C251        C252   1.406       .  A
C251        H260   1.082       .  S
C252        C255   1.483       .  S
C252        C253   1.402       .  A
C253        C254   1.399       .  A
C253        H261   1.083       .  S
C254        H262   1.081   1_545  S
C255        H263   1.087       .  S
C255        C256   1.343       .  D
C256        H264   1.086       .  S
C257        H265   1.087       .  S
C257        C258   1.346   1_545  D
C258        H266   1.084       .  S
C267        C275   1.478       .  S
C267        C268   1.402       .  A
C267        C272   1.405       .  A
C268        C269   1.395       .  A
C268        H277   1.084       .  S
C269        C270   1.405       .  A
C269        H278   1.082       .  S
C270        C273   1.480       .  S
C270        C271   1.404       .  A
C271        C272   1.399       .  A
C271        H279   1.083       .  S
C272        H280   1.082       .  S
C273        H281   1.087       .  S
C273        C274   1.344       .  D
C274        H282   1.086       .  S
C275        H283   1.083       .  S
C275        C276   1.351       .  D
C276        H284   1.086       .  S
C285        C293   1.490       .  S
C285        C286   1.404       .  A
C285        C290   1.410       .  A
C286        C287   1.397       .  A
C286        H295   1.083       .  S
C287        C288   1.407       .  A
C287        H296   1.081       .  S
C288        C291   1.485       .  S
C288        C289   1.402       .  A
C289        C290   1.398       .  A
C289        H297   1.083       .  S
C290        H298   1.079       .  S
C291        H299   1.087       .  S
C291        C292   1.347       .  D
C292        H300   1.085       .  S
C293        H301   1.087       .  S
C293        C294   1.346       .  D
C294        H302   1.082       .  S
C303        C311   1.484       .  S
C303        C304   1.404       .  A
C303        C308   1.406       .  A
C304        C305   1.400       .  A
C304        H313   1.083       .  S
C305        C306   1.408       .  A
C305        H314   1.081       .  S
C306        C309   1.486       .  S
C306        C307   1.403       .  A
C307        C308   1.396       .  A
C307        H315   1.083       .  S
C308        H316   1.082       .  S
C309        H317   1.087       .  S
C309        C310   1.346       .  D
C310        H318   1.085       .  S
C311        H319   1.087       .  S
C311        C312   1.346       .  D
C312        H320   1.085       .  S
C321        C329   1.485       .  S
C321        C322   1.404       .  A
C321        C326   1.408       .  A
C322        C323   1.398       .  A
C322        H331   1.083       .  S
C323        C324   1.407       .  A
C323        H332   1.082       .  S
C324        C327   1.482   1_655  S
C324        C325   1.402       .  A
C325        C326   1.396       .  A
C325        H333   1.083       .  S
C326        H334   1.081       .  S
C327        H335   1.087       .  S
C327        C328   1.347       .  D
C328        H336   1.085       .  S
C329        H337   1.087       .  S
C329        C330   1.345       .  D
C330        H338   1.084       .  S
C339        C347   1.478       .  S
C339        C340   1.400       .  A
C339        C344   1.406       .  A
C340        C341   1.393       .  A
C340        H349   1.084       .  S
C341        C342   1.408       .  A
C341        H350   1.080       .  S
C342        C345   1.485       .  S
C342        C343   1.404       .  A
C343        C344   1.398       .  A
C343        H351   1.083       .  S
C344        H352   1.081       .  S
C345        H353   1.087       .  S
C345        C346   1.343       .  D
C346        H354   1.083       .  S
C347        H355   1.088       .  S
C347        C348   1.348       .  D
C348        H356   1.086       .  S
C357        C365   1.482       .  S
C357        C358   1.403       .  A
C357        C362   1.404       .  A
C358        C359   1.400       .  A
C358        H367   1.083       .  S
C359        C360   1.409       .  A
C359        H368   1.080       .  S
C360        C363   1.486       .  S
C360        C361   1.404       .  A
C361        C362   1.394       .  A
C361        H369   1.084       .  S
C362        H370   1.082       .  S
C363        H371   1.088       .  S
C363        C364   1.346       .  D
C364        H372   1.083       .  S
C365        H373   1.087       .  S
C365        C366   1.345       .  D
C366        H374   1.086       .  S
C375        C383   1.486       .  S
C375        C376   1.402       .  A
C375        C380   1.409       .  A
C376        C377   1.394       .  A
C376        H385   1.083       .  S
C377        C378   1.406       .  A
C377        H386   1.082       .  S
C378        C381   1.486       .  S
C378        C379   1.403       .  A
C379        C380   1.401       .  A
C379        H387   1.083       .  S
C380        H388   1.081       .  S
C381        H389   1.086       .  S
C381        C382   1.348       .  D
C382        H390   1.086       .  S
C383        H391   1.087       .  S
C383        C384   1.345       .  D
C384        H392   1.084       .  S
C393        C401   1.483       .  S
C393        C394   1.401       .  A
C393        C398   1.408       .  A
C394        C395   1.392       .  A
C394        H403   1.084       .  S
C395        C396   1.406       .  A
C395        H404   1.081       .  S
C396        C399   1.486       .  S
C396        C397   1.405       .  A
C397        C398   1.402       .  A
C397        H405   1.083       .  S
C398        H406   1.081       .  S
C399        H407   1.087       .  S
C399        C400   1.345       .  D
C400        H408   1.084       .  S
C401        H409   1.081       .  S
C401        C402   1.347   1_545  D
C402        H410   1.085       .  S
C411        C419   1.485       .  S
C411        C412   1.403       .  A
C411        C416   1.405       .  A
C412        C413   1.402       .  A
C412        H421   1.083       .  S
C413        C414   1.410       .  A
C413        H422   1.080   1_655  S
C414        C417   1.491       .  S
C414        C415   1.405       .  A
C415        C416   1.396       .  A
C415        H423   1.083       .  S
C416        H424   1.082       .  S
C417        H425   1.087       .  S
C417        C418   1.348   1_655  D
C418        H426   1.083       .  S
C419        H427   1.087       .  S
C419        C420   1.345       .  D
C420        H428   1.086       .  S
C429        C437   1.482       .  S
C429        C430   1.401       .  A
C429        C434   1.406       .  A
C430        C431   1.398       .  A
C430        H439   1.084       .  S
C431        C432   1.411       .  A
C431        H440   1.079       .  S
C432        C435   1.492       .  S
C432        C433   1.404       .  A
C433        C434   1.398       .  A
C433        H441   1.084       .  S
C434        H442   1.082       .  S
C435        H443   1.087       .  S
C435        C436   1.345       .  D
C436        H444   1.082       .  S
C437        H445   1.087       .  S
C437        C438   1.344       .  D
C438        H446   1.086       .  S
C447        C455   1.484       .  S
C447        C448   1.403       .  A
C447        C452   1.407       .  A
C448        C449   1.401       .  A
C448        H457   1.083       .  S
C449        C450   1.407       .  A
C449        H458   1.082       .  S
C450        C453   1.481       .  S
C450        C451   1.401       .  A
C451        C452   1.395       .  A
C451        H459   1.084       .  S
C452        H460   1.082       .  S
C453        H461   1.088       .  S
C453        C454   1.344       .  D
C454        H462   1.086       .  S
C455        H463   1.087       .  S
C455        C456   1.343       .  D
C456        H464   1.086       .  S
C465        C473   1.487       .  S
C465        C466   1.405       .  A
C465        C470   1.408   1_554  A
C466        C467   1.397   1_554  A
C466        H475   1.084       .  S
C467        C468   1.406       .  A
C467        H476   1.082   1_556  S
C468        C471   1.483       .  S
C468        C469   1.402       .  A
C469        C470   1.398       .  A
C469        H477   1.084       .  S
C470        H478   1.080       .  S
C471        H479   1.087       .  S
C471        C472   1.344       .  D
C472        H480   1.085       .  S
C473        H481   1.088       .  S
C473        C474   1.350       .  D
C474        H482   1.084   1_554  S
C483        C491   1.487       .  S
C483        C484   1.403       .  A
C483        C488   1.408       .  A
C484        C485   1.400       .  A
C484        H493   1.083       .  S
C485        C486   1.409       .  A
C485        H494   1.081       .  S
C486        C489   1.486       .  S
C486        C487   1.402       .  A
C487        C488   1.396       .  A
C487        H495   1.084       .  S
C488        H496   1.081       .  S
C489        H497   1.088       .  S
C489        C490   1.345       .  D
C490        H498   1.085       .  S
C491        H499   1.087       .  S
C491        C492   1.344       .  D
C492        H500   1.085       .  S
C501        C509   1.490       .  S
C501        C502   1.404       .  A
C501        C506   1.410       .  A
C502        C503   1.398       .  A
C502        H511   1.084       .  S
C503        C504   1.408       .  A
C503        H512   1.080       .  S
C504        C507   1.486       .  S
C504        C505   1.401       .  A
C505        C506   1.395       .  A
C505        H513   1.084       .  S
C506        H514   1.079       .  S
C507        H515   1.087       .  S
C507        C508   1.344       .  D
C508        H516   1.083       .  S
C509        H517   1.087       .  S
C509        C510   1.345       .  D
C510        H518   1.082       .  S
C519        C527   1.489       .  S
C519        C520   1.403       .  A
C519        C524   1.408       .  A
C520        C521   1.398       .  A
C520        H529   1.084       .  S
C521        C522   1.409       .  A
C521        H530   1.080       .  S
C522        C525   1.492   1_545  S
C522        C523   1.405       .  A
C523        C524   1.401       .  A
C523        H531   1.083       .  S
C524        H532   1.081       .  S
C525        H533   1.087       .  S
C525        C526   1.351       .  D
C526        H534   1.083       .  S
C527        H535   1.087       .  S
C527        C528   1.347       .  D
C528        H536   1.084       .  S
C537        C545   1.486   1_554  S
C537        C538   1.403       .  A
C537        C542   1.408       .  A
C538        C539   1.399       .  A
C538        H547   1.083       .  S
C539        C540   1.408       .  A
C539        H548   1.080       .  S
C540        C543   1.484       .  S
C540        C541   1.402       .  A
C541        C542   1.394       .  A
C541        H549   1.084       .  S
C542        H550   1.080       .  S
C543        H551   1.087       .  S
C543        C544   1.344       .  D
C544        H552   1.084       .  S
C545        H553   1.087       .  S
C545        C546   1.343       .  D
C546        H554   1.084       .  S
C555        C563   1.489       .  S
C555        C556   1.404       .  A
C555        C560   1.408       .  A
C556        C557   1.401       .  A
C556        H565   1.084       .  S
C557        C558   1.409       .  A
C557        H566   1.080       .  S
C558        C561   1.489       .  S
C558        C559   1.403       .  A
C559        C560   1.397       .  A
C559        H567   1.084       .  S
C560        H568   1.081       .  S
C561        H569   1.088       .  S
C561        C562   1.347       .  D
C562        H570   1.084       .  S
C563        H571   1.087       .  S
C563        C564   1.345       .  D
C564        H572   1.085       .  S
C573        C581   1.482       .  S
C573        C574   1.402       .  A
C573        C578   1.407       .  A
C574        C575   1.395       .  A
C574        H583   1.084       .  S
C575        C576   1.407       .  A
C575        H584   1.081       .  S
C576        C579   1.486       .  S
C576        C577   1.404       .  A
C577        C578   1.400       .  A
C577        H585   1.083       .  S
C578        H586   1.081       .  S
C579        H587   1.087       .  S
C579        C580   1.346       .  D
C580        H588   1.085       .  S
C581        H589   1.088       .  S
C581        C582   1.345       .  D
C582        H590   1.085       .  S
C591        C599   1.486       .  S
C591        C592   1.404       .  A
C591        C596   1.406       .  A
C592        C593   1.402       .  A
C592        H601   1.083       .  S
C593        C594   1.407       .  A
C593        H602   1.083       .  S
C594        C597   1.484   1_556  S
C594        C595   1.402       .  A
C595        C596   1.397       .  A
C595        H603   1.083   1_556  S
C596        H604   1.083       .  S
C597        H605   1.084       .  S
C597        C598   1.348   1_654  D
C598        H606   1.087       .  S
C599        H607   1.087       .  S
C599        C600   1.346       .  D
C600        H608   1.086       .  S
C609        C617   1.484       .  S
C609        C610   1.402       .  A
C609        C614   1.408       .  A
C610        C611   1.394       .  A
C610        H619   1.084       .  S
C611        C612   1.406       .  A
C611        H620   1.081   1_545  S
C612        C615   1.484   1_545  S
C612        C613   1.404       .  A
C613        C614   1.400       .  A
C613        H621   1.083       .  S
C614        H622   1.081       .  S
C615        H623   1.087       .  S
C615        C616   1.345       .  D
C616        H624   1.084       .  S
C617        H625   1.087       .  S
C617        C618   1.345       .  D
C618        H626   1.084       .  S
C627        C635   1.483       .  S
C627        C628   1.401       .  A
C627        C632   1.406       .  A
C628        C629   1.397       .  A
C628        H637   1.084       .  S
C629        C630   1.409       .  A
C629        H638   1.079       .  S
C630        C633   1.493       .  S
C630        C631   1.407       .  A
C631        C632   1.401       .  A
C631        H639   1.084       .  S
C632        H640   1.082       .  S
C633        H641   1.087       .  S
C633        C634   1.348       .  D
C634        H642   1.083       .  S
C635        H643   1.088       .  S
C635        C636   1.345       .  D
C636        H644   1.086       .  S
C645        C653   1.487       .  S
C645        C646   1.404       .  A
C645        C650   1.407       .  A
C646        C647   1.402       .  A
C646        H655   1.083       .  S
C647        C648   1.408       .  A
C647        H656   1.081       .  S
C648        C651   1.486       .  S
C648        C649   1.403       .  A
C649        C650   1.395       .  A
C649        H657   1.083       .  S
C650        H658   1.082       .  S
C651        H659   1.087       .  S
C651        C652   1.346       .  D
C652        H660   1.084       .  S
C653        H661   1.087       .  S
C653        C654   1.347       .  D
C654        H662   1.086       .  S
C663        C671   1.488       .  S
C663        C664   1.403       .  A
C663        C668   1.410       .  A
C664        C665   1.395       .  A
C664        H673   1.084       .  S
C665        C666   1.406   1_554  A
C665        H674   1.081   1_545  S
C666        C669   1.484       .  S
C666        C667   1.403       .  A
C667        C668   1.399   1_556  A
C667        H675   1.083       .  S
C668        H676   1.080       .  S
C669        H677   1.087       .  S
C669        C670   1.345   1_545  D
C670        H678   1.085       .  S
C671        H679   1.087       .  S
C671        C672   1.346       .  D
C672        H680   1.083       .  S
C681        C689   1.487       .  S
C681        C682   1.403       .  A
C681        C686   1.408       .  A
C682        C683   1.399       .  A
C682        H691   1.084       .  S
C683        C684   1.409       .  A
C683        H692   1.081       .  S
C684        C687   1.489       .  S
C684        C685   1.403       .  A
C685        C686   1.397       .  A
C685        H693   1.084       .  S
C686        H694   1.081       .  S
C687        H695   1.087       .  S
C687        C688   1.346       .  D
C688        H696   1.084       .  S
C689        H697   1.087       .  S
C689        C690   1.345       .  D
C690        H698   1.084       .  S
C699        C707   1.480       .  S
C699        C700   1.401       .  A
C699        C704   1.406       .  A
C700        C701   1.396       .  A
C700        H709   1.084       .  S
C701        C702   1.409       .  A
C701        H710   1.079       .  S
C702        C705   1.487       .  S
C702        C703   1.404       .  A
C703        C704   1.397       .  A
C703        H711   1.084       .  S
C704        H712   1.082       .  S
C705        H713   1.088       .  S
C705        C706   1.345   1_545  D
C706        H714   1.083   1_565  S
C707        H715   1.088       .  S
C707        C708   1.343       .  D
C708        H716   1.085       .  S
C717        C725   1.488       .  S
C717        C718   1.405       .  A
C717        C722   1.407       .  A
C718        C719   1.400       .  A
C718        H727   1.083       .  S
C719        C720   1.407       .  A
C719        H728   1.081       .  S
C720        C723   1.486       .  S
C720        C721   1.403       .  A
C721        C722   1.396       .  A
C721        H729   1.083       .  S
C722        H730   1.080       .  S
C723        H731   1.087       .  S
C723        C724   1.346       .  D
C724        H732   1.084       .  S
C725        H733   1.087       .  S
C725        C726   1.351       .  D
C726        H734   1.084       .  S
C735        C743   1.486       .  S
C735        C736   1.405       .  A
C735        C740   1.407       .  A
C736        C737   1.403       .  A
C736        H745   1.083       .  S
C737        C738   1.407       .  A
C737        H746   1.082       .  S
C738        C741   1.481       .  S
C738        C739   1.400       .  A
C739        C740   1.394       .  A
C739        H747   1.084       .  S
C740        H748   1.082       .  S
C741        H749   1.088       .  S
C741        C742   1.343       .  D
C742        H750   1.086       .  S
C743        H751   1.087       .  S
C743        C744   1.345       .  D
C744        H752   1.086       .  S
C753        C761   1.486       .  S
C753        C754   1.404       .  A
C753        C758   1.407       .  A
C754        C755   1.401       .  A
C754        H763   1.084       .  S
C755        C756   1.409       .  A
C755        H764   1.080       .  S
C756        C759   1.485       .  S
C756        C757   1.401       .  A
C757        C758   1.392       .  A
C757        H765   1.084       .  S
C758        H766   1.081       .  S
C759        H767   1.088       .  S
C759        C760   1.344       .  D
C760        H768   1.084       .  S
C761        H769   1.087       .  S
C761        C762   1.344       .  D
C762        H770   1.085       .  S
C771        C779   1.476       .  S
C771        C772   1.401       .  A
C771        C776   1.405       .  A
C772        C773   1.394       .  A
C772        H781   1.084       .  S
C773        C774   1.405       .  A
C773        H782   1.083       .  S
C774        C777   1.479       .  S
C774        C775   1.404       .  A
C775        C776   1.400       .  A
C775        H783   1.083       .  S
C776        H784   1.083       .  S
C777        H785   1.087       .  S
C777        C778   1.343       .  D
C778        H786   1.086       .  S
C779        H787   1.087       .  S
C779        C780   1.346       .  D
C780        H788   1.087       .  S
C789        C797   1.488   1_554  S
C789        C790   1.405       .  A
C789        C794   1.409       .  A
C790        C791   1.398       .  A
C790        H799   1.084   1_554  S
C791        C792   1.405       .  A
C791        H800   1.082       .  S
C792        C795   1.482       .  S
C792        C793   1.402       .  A
C793        C794   1.397       .  A
C793        H801   1.084       .  S
C794        H802   1.080       .  S
C795        H803   1.088       .  S
C795        C796   1.346       .  D
C796        H804   1.085       .  S
C797        H805   1.087       .  S
C797        C798   1.346       .  D
C798        H806   1.083   1_556  S
C807        C815   1.490       .  S
C807        C808   1.404       .  A
C807        C812   1.408       .  A
C808        C809   1.400       .  A
C808        H817   1.084       .  S
C809        C810   1.409       .  A
C809        H818   1.079       .  S
C810        C813   1.490       .  S
C810        C811   1.404       .  A
C811        C812   1.396       .  A
C811        H819   1.084       .  S
C812        H820   1.079       .  S
C813        H821   1.088       .  S
C813        C814   1.346       .  D
C814        H822   1.083       .  S
C815        H823   1.087       .  S
C815        C816   1.346       .  D
C816        H824   1.083       .  S
C825        C833   1.489       .  S
C825        C826   1.403       .  A
C825        C830   1.408       .  A
C826        C827   1.396       .  A
C826        H835   1.084       .  S
C827        C828   1.409       .  A
C827        H836   1.079       .  S
C828        C831   1.492       .  S
C828        C829   1.405       .  A
C829        C830   1.400       .  A
C829        H837   1.083       .  S
C830        H838   1.080       .  S
C831        H839   1.087       .  S
C831        C832   1.346       .  D
C832        H840   1.082       .  S
C833        H841   1.088       .  S
C833        C834   1.346       .  D
C834        H842   1.083       .  S
C843        C851   1.488       .  S
C843        C844   1.403       .  A
C843        C848   1.409       .  A
C844        C845   1.398       .  A
C844        H853   1.083       .  S
C845        C846   1.408       .  A
C845        H854   1.082       .  S
C846        C849   1.487       .  S
C846        C847   1.402       .  A
C847        C848   1.399       .  A
C847        H855   1.083   1_455  S
C848        H856   1.081   1_455  S
C849        H857   1.083       .  S
C849        C850   1.347       .  D
C850        H858   1.085       .  S
C851        H859   1.087       .  S
C851        C852   1.346       .  D
C852        H860   1.084   1_455  S
C861        C869   1.484       .  S
C861        C862   1.402       .  A
C861        C866   1.407       .  A
C862        C863   1.397       .  A
C862        H871   1.084       .  S
C863        C864   1.409       .  A
C863        H872   1.080       .  S
C864        C867   1.488       .  S
C864        C865   1.404       .  A
C865        C866   1.398       .  A
C865        H873   1.084       .  S
C866        H874   1.081       .  S
C867        H875   1.087       .  S
C867        C868   1.346       .  D
C868        H876   1.084       .  S
C869        H877   1.087       .  S
C869        C870   1.344       .  D
C870        H878   1.085       .  S
C879        C887   1.485   1_655  S
C879        C880   1.402       .  A
C879        C884   1.406       .  A
C880        C881   1.397       .  A
C880        H889   1.084   1_655  S
C881        C882   1.409       .  A
C881        H890   1.079       .  S
C882        C885   1.493       .  S
C882        C883   1.406       .  A
C883        C884   1.400       .  A
C883        H891   1.083       .  S
C884        H892   1.081       .  S
C885        H893   1.087       .  S
C885        C886   1.348       .  D
C886        H894   1.081       .  S
C887        H895   1.087       .  S
C887        C888   1.345   1_455  D
C888        H896   1.084       .  S
C897        C905   1.488       .  S
C897        C898   1.404       .  A
C897        C902   1.408       .  A
C898        C899   1.399       .  A
C898        H907   1.083       .  S
C899        C900   1.407       .  A
C899        H908   1.082       .  S
C900        C903   1.485       .  S
C900        C901   1.402       .  A
C901        C902   1.399       .  A
C901        H909   1.083       .  S
C902        H910   1.082       .  S
C903        H911   1.087       .  S
C903        C904   1.347   1_556  D
C904        H912   1.087       .  S
C905        H913   1.087       .  S
C905        C906   1.346       .  D
C906        H914   1.085       .  S
C915        C923   1.494       .  S
C915        C916   1.406       .  A
C915        C920   1.409       .  A
C916        C917   1.401       .  A
C916        H925   1.083       .  S
C917        C918   1.407       .  A
C917        H926   1.082       .  S
C918        C921   1.489   1_554  S
C918        C919   1.404       .  A
C919        C920   1.400       .  A
C919        H927   1.084   1_554  S
C920        H928   1.080       .  S
C921        H929   1.087       .  S
C921        C922   1.348       .  D
C922        H930   1.085   1_556  S
C923        H931   1.087       .  S
C923        C924   1.349       .  D
C924        H932   1.083       .  S
