geometry optimzed in LAMMPS
_audit_creation_date              2020-12-01 
_audit_creation_method            'lammps2cif' 
_symmetry_space_group_name_H-M    'P1' 
_symmetry_Int_Tables_number       1 
_symmetry_cell_setting            triclinic 
loop_ 
_symmetry_equiv_pos_as_xyz 
  x,y,z 
_cell_length_a                    45.95745072 
_cell_length_b                    45.95762039531655 
_cell_length_c                    33.708533112657385 
_cell_angle_alpha                 90.00423195912032 
_cell_angle_beta                  89.98964383430173 
_cell_angle_gamma                 89.99047304863393 
loop_ 
_atom_site_label 
_atom_site_type_symbol 
_atom_site_fract_x 
_atom_site_fract_y 
_atom_site_fract_z 
_atom_site_charge 
Fe1        Fe  0.82111736  0.76888921  0.31207651     1.65800
Fe2        Fe  0.87349829  0.79523378  0.37061560     1.73200
Fe3        Fe  0.84145868  0.83956666  0.30291446     1.54400
O4          O  0.83259737  0.82066042  0.24704715    -0.79300
O5          O  0.85721590  0.82893662  0.40389800    -0.77700
O6          O  0.83871556  0.77325609  0.25769496    -0.81900
O7          O  0.78639338  0.79513064  0.29396800    -0.76700
O8          O  0.88554476  0.84021040  0.29029363    -0.78500
O9          O  0.84676084  0.76612506  0.39927805    -0.81200
C10         C  0.78039721  0.82215621  0.29270715     0.99500
C11         C  0.83214428  0.79424101  0.23542358     1.07000
O12         O  0.84468146  0.80171210  0.32939759    -1.10200
O13         O  0.89249411  0.76097147  0.34073401    -0.72600
O14         O  0.85214893  0.73736964  0.32418357    -0.76100
O15         O  0.79647462  0.84115378  0.30961197    -0.76800
C16         C  0.87923966  0.73792880  0.33087955     0.98400
O17         O  0.80423172  0.76214000  0.36745961    -0.74800
O18         O  0.90435529  0.82239317  0.34621220    -0.80000
C19         C  0.85460432  0.85533108  0.39346330     1.01100
C20         C  0.90685223  0.83547035  0.31335198     1.07000
O21         O  0.84960680  0.86275153  0.35724570    -0.75600
C22         C  0.82146753  0.75537233  0.39542132     1.05300
Fe23       Fe  0.67684755  0.76892946  0.18977572     1.65800
Fe24       Fe  0.62478107  0.79535743  0.13076916     1.73200
Fe25       Fe  0.65651495  0.83961341  0.19876949     1.54400
O26         O  0.66531216  0.82078398  0.25465475    -0.79300
O27         O  0.64132775  0.82900960  0.09765960    -0.77700
O28         O  0.65905996  0.77341478  0.24404823    -0.81900
O29         O  0.71154639  0.79517085  0.20795901    -0.76700
O30         O  0.61240300  0.84010823  0.21120851    -0.78500
O31         O  0.65156041  0.76615972  0.10232486    -0.81200
C32         C  0.71756762  0.82219471  0.20918980     0.99500
C33         C  0.66570599  0.79438334  0.26630246     1.07000
O34         O  0.65341296  0.80177002  0.17223269    -1.10200
O35         O  0.60557050  0.76116009  0.16048509    -0.72600
O36         O  0.64578284  0.73749726  0.17754352    -0.76100
O37         O  0.70151796  0.84121372  0.19225337    -0.76800
C38         C  0.61873326  0.73811251  0.17055677     0.98400
O39         O  0.69392231  0.76202923  0.13451814    -0.74800
O40         O  0.59387883  0.82260486  0.15493105    -0.80000
C41         C  0.64367836  0.85541049  0.10817031     1.01100
C42         C  0.59120870  0.83548667  0.18791479     1.07000
O43         O  0.64842046  0.86281630  0.14445259    -0.75600
C44         C  0.67680138  0.75532187  0.10639856     1.05300
Fe45       Fe  0.32049951  0.76933012  0.43935850     1.65800
Fe46       Fe  0.37331584  0.79536913  0.38120295     1.73200
Fe47       Fe  0.34155147  0.83986764  0.44885363     1.54400
O48         O  0.29662267  0.84183848  0.44212226    -0.79300
O49         O  0.40432010  0.82228281  0.40562643    -0.77700
O50         O  0.28590154  0.79583688  0.45715453    -0.81900
O51         O  0.33762979  0.77345245  0.49402254    -0.76700
O52         O  0.34983195  0.86301606  0.39450429    -0.78500
O53         O  0.39197901  0.76106658  0.41126994    -0.81200
C54         C  0.33174571  0.79462644  0.01633531     0.99500
C55         C  0.28030594  0.82294004  0.45878796     1.07000
O56         O  0.34444350  0.80200076  0.42232493    -1.10200
O57         O  0.34659474  0.76640510  0.35237847    -0.72600
O58         O  0.30389654  0.76260184  0.38376169    -0.76100
O59         O  0.33258095  0.82102634  0.00468302    -0.76800
C60         C  0.32126012  0.75574338  0.35597401     0.98400
O61         O  0.35147150  0.73764066  0.42766493    -0.74800
O62         O  0.35729050  0.82914883  0.34786113    -0.80000
C63         C  0.40693524  0.83515548  0.43859841     1.01100
C64         C  0.35473372  0.85555534  0.35826657     1.07000
O65         O  0.38563627  0.84011035  0.46158838    -0.75600
C66         C  0.37860546  0.73811543  0.42120662     1.05300
Fe67       Fe  0.17796292  0.76932628  0.06228278     1.65800
Fe68       Fe  0.12508372  0.79534771  0.12041258     1.73200
Fe69       Fe  0.15665822  0.83980408  0.05260914     1.54400
O70         O  0.20159287  0.84190186  0.05932699    -0.79300
O71         O  0.09400170  0.82219671  0.09598666    -0.77700
O72         O  0.21249549  0.79588788  0.04454048    -0.81900
O73         O  0.16099487  0.77330126  0.00748864    -0.76700
O74         O  0.14829366  0.86301715  0.10688625    -0.78500
O75         O  0.10647184  0.76096687  0.09046064    -0.81200
C76         C  0.16662671  0.79454081  0.48516041     0.99500
C77         C  0.21799845  0.82300146  0.04280369     1.07000
O78         O  0.15389491  0.80195928  0.07920321    -1.10200
O79         O  0.15184409  0.76644510  0.14928499    -0.72600
O80         O  0.19454130  0.76271205  0.11792181    -0.76100
O81         O  0.16566063  0.82093026  0.49683626    -0.76800
C82         C  0.17718680  0.75580379  0.14568292     0.98400
O83         O  0.14701732  0.73760214  0.07397672    -0.74800
O84         O  0.14110341  0.82918995  0.15363615    -0.80000
C85         C  0.09130011  0.83500032  0.06297747     1.01100
C86         C  0.14347830  0.85559349  0.14315462     1.07000
O87         O  0.11255431  0.83991110  0.03989044    -0.75600
C88         C  0.11988616  0.73803316  0.08050642     1.05300
Fe89       Fe  0.32126178  0.73286630  0.18952580     1.65800
Fe90       Fe  0.37353861  0.70658138  0.13070536     1.73200
Fe91       Fe  0.34178813  0.66223027  0.19862216     1.54400
O92         O  0.33302918  0.68110123  0.25450975    -0.79300
O93         O  0.35718663  0.67287036  0.09754081    -0.77700
O94         O  0.33891238  0.72854321  0.24388207    -0.81900
O95         O  0.28661448  0.70658556  0.20772018    -0.76700
O96         O  0.38592167  0.66172822  0.21101704    -0.78500
O97         O  0.34670479  0.73568410  0.10218900    -0.81200
C98         C  0.28063140  0.67956181  0.20902881     0.99500
C99         C  0.33254706  0.70750521  0.26617751     1.07000
O100        O  0.34484831  0.70007958  0.17210369    -1.10200
O101        O  0.39257520  0.74084293  0.16048402    -0.72600
O102        O  0.35224973  0.76440564  0.17730725    -0.76100
O103        O  0.29675329  0.66053411  0.19221623    -0.76800
C104        C  0.37932281  0.76386664  0.17044495     0.98400
O105        O  0.30425270  0.73959215  0.13421468    -0.74800
O106        O  0.40451816  0.67945386  0.15491269    -0.80000
C107        C  0.35478704  0.64646929  0.10802760     1.01100
C108        C  0.40715494  0.66646724  0.18781936     1.07000
O109        O  0.34990883  0.63904992  0.14427657    -0.75600
C110        C  0.32141238  0.74641771  0.10619309     1.05300
Fe111      Fe  0.17659828  0.73296787  0.31136692     1.65800
Fe112      Fe  0.12458126  0.70664938  0.37056215     1.73200
Fe113      Fe  0.15640412  0.66223437  0.30277387     1.54400
O114        O  0.16514711  0.68093525  0.24675567    -0.79300
O115        O  0.14113456  0.67309398  0.40386901    -0.77700
O116        O  0.15875699  0.72830686  0.25717257    -0.81900
O117        O  0.21134624  0.70672561  0.29323819    -0.76700
O118        O  0.11228226  0.66164350  0.29041235    -0.78500
O119        O  0.15134028  0.73593804  0.39881994    -0.81200
C120        C  0.21744755  0.67971151  0.29216027     0.99500
C121        C  0.16546022  0.70731417  0.23499191     1.07000
O122        O  0.15323631  0.70014242  0.32912501    -1.10200
O123        O  0.10531955  0.74073657  0.34066402    -0.72600
O124        O  0.14549244  0.76440628  0.32349537    -0.76100
O125        O  0.20143193  0.66070706  0.30919544    -0.76800
C126        C  0.11844211  0.76377816  0.33049298     0.98400
O127        O  0.19369307  0.74003607  0.36656378    -0.74800
O128        O  0.09371242  0.67932196  0.34657601    -0.80000
C129        C  0.14352572  0.64666594  0.39348477     1.01100
C130        C  0.09107049  0.66634908  0.31366095     1.07000
O131        O  0.14834959  0.63917852  0.35724473    -0.75600
C132        C  0.17657839  0.74676654  0.39469374     1.05300
Fe133      Fe  0.98091077  0.42992263  0.43798145     1.65800
Fe134      Fe  0.95485779  0.37704976  0.49605571     1.73200
Fe135      Fe  0.91046565  0.40862712  0.42816299     1.54400
O136        O  0.90836532  0.45354787  0.43485245    -0.79300
O137        O  0.92808453  0.34593326  0.47154757    -0.77700
O138        O  0.95436083  0.46442543  0.42002360    -0.81900
O139        O  0.97706237  0.41285435  0.38323586    -0.76700
O140        O  0.88718961  0.40037436  0.48239815    -0.78500
O141        O  0.98930101  0.35845911  0.46616368    -0.81200
C142        C  0.95586852  0.41849013  0.36083331     0.99500
C143        C  0.92724280  0.46990729  0.41823392     1.07000
O144        O  0.94827069  0.40585264  0.45483853    -1.10200
O145        O  0.98367737  0.40387634  0.02498339    -0.72600
O146        O  0.98734025  0.44657120  0.49360231    -0.76100
O147        O  0.92945347  0.41754925  0.37242308    -0.76800
C148        C  0.99425850  0.42924457  0.02138154     0.98400
O149        O  0.01266978  0.39902073  0.44983645    -0.74800
O150        O  0.92094504  0.39303018  0.02920934    -0.80000
C151        C  0.91526692  0.34325290  0.43854336     1.01100
C152        C  0.89456359  0.39553997  0.01867497     1.07000
O153        O  0.91032750  0.36452110  0.41549968    -0.75600
C154        C  0.01223783  0.37187413  0.45624412     1.05300
Fe155      Fe  0.98073851  0.57205352  0.31430996     1.65800
Fe156      Fe  0.95461749  0.62475951  0.25599887     1.73200
Fe157      Fe  0.91019844  0.59313492  0.32383273     1.54400
O158        O  0.90824350  0.54819824  0.31715424    -0.79300
O159        O  0.92769475  0.65580518  0.28038670    -0.77700
O160        O  0.95425691  0.53748070  0.33215394    -0.81900
O161        O  0.97665131  0.58919898  0.36899323    -0.76700
O162        O  0.88698981  0.60140199  0.26950764    -0.78500
O163        O  0.98895208  0.64349151  0.28591649    -0.81200
C164        C  0.95547552  0.58337064  0.39133116     0.99500
C165        C  0.92715620  0.53189942  0.33382994     1.07000
O166        O  0.94804975  0.59598024  0.29725377    -1.10200
O167        O  0.98357271  0.59800029  0.22720118    -0.72600
O168        O  0.98746313  0.55538065  0.25873782    -0.76100
O169        O  0.92907480  0.58420512  0.37967095    -0.76800
C170        C  0.99428672  0.57269317  0.23088540     0.98400
O171        O  0.01238598  0.60302927  0.30255387    -0.74800
O172        O  0.92082331  0.60864486  0.22277359    -0.80000
C173        C  0.91486306  0.65849336  0.31338648     1.01100
C174        C  0.89441912  0.60622603  0.23323736     1.07000
O175        O  0.90996824  0.63724212  0.33647925    -0.75600
C176        C  0.01189882  0.63014446  0.29596479     1.05300
Fe177      Fe  0.51766419  0.57213821  0.18747264     1.65800
Fe178      Fe  0.54367924  0.62497296  0.24564101     1.73200
Fe179      Fe  0.58813752  0.59335167  0.17782104     1.54400
O180        O  0.59023069  0.54843062  0.18459745    -0.79300
O181        O  0.57050633  0.65603042  0.22116292    -0.77700
O182        O  0.54422478  0.53758726  0.16973650    -0.81900
O183        O  0.52167700  0.58915071  0.13271039    -0.76700
O184        O  0.61134930  0.60170983  0.23208143    -0.78500
O185        O  0.50928344  0.64362252  0.21573323    -0.81200
C186        C  0.54288618  0.58339686  0.11038363     0.99500
C187        C  0.57133632  0.53205543  0.16803155     1.07000
O188        O  0.55029380  0.59616074  0.20442591    -1.10200
O189        O  0.51479962  0.59820473  0.27451976    -0.72600
O190        O  0.51105316  0.55553710  0.24308155    -0.76100
O191        O  0.56927894  0.58431640  0.12204245    -0.76800
C192        C  0.50417336  0.57286198  0.27088618     0.98400
O193        O  0.48593521  0.60310305  0.19915178    -0.74800
O194        O  0.57753100  0.60894393  0.27884507    -0.80000
C195        C  0.58325380  0.65870516  0.18810605     1.01100
C196        C  0.60393016  0.60651505  0.26835378     1.07000
O197        O  0.58820327  0.63743468  0.16506581    -0.75600
C198        C  0.48636298  0.63023405  0.20568432     1.05300
Fe199      Fe  0.51769562  0.42963359  0.06455158     1.65800
Fe200      Fe  0.54376392  0.37687831  0.00629760     1.73200
Fe201      Fe  0.58825348  0.40862564  0.07396352     1.54400
O202        O  0.59018582  0.45355263  0.06719092    -0.79300
O203        O  0.57066029  0.34586556  0.03075182    -0.77700
O204        O  0.54418950  0.46422838  0.08234527    -0.81900
O205        O  0.52185516  0.41246065  0.11919107    -0.76700
O206        O  0.61142256  0.40032391  0.01963990    -0.78500
O207        O  0.50942031  0.35818287  0.03627841    -0.81200
C208        C  0.54302445  0.41836314  0.14149180     0.99500
C209        C  0.57128741  0.46984876  0.08390879     1.07000
O210        O  0.55037799  0.40571792  0.04745773    -1.10200
O211        O  0.51482291  0.40363570  0.47748425    -0.72600
O212        O  0.51093964  0.44628139  0.00898786    -0.76100
O213        O  0.56941955  0.41759268  0.12980446    -0.76800
C214        C  0.50412346  0.42895387  0.48114788     0.98400
O215        O  0.48601080  0.39866603  0.05285725    -0.74800
O216        O  0.57756679  0.39291320  0.47299324    -0.80000
C217        C  0.58353669  0.34324771  0.06372016     1.01100
C218        C  0.60397277  0.39541940  0.48340728     1.07000
O219        O  0.58851228  0.36454461  0.08670026    -0.75600
C220        C  0.48647440  0.37154442  0.04630524     1.05300
Fe221      Fe  0.82143433  0.23303057  0.43987259     1.65800
Fe222      Fe  0.87355732  0.20666081  0.38087351     1.73200
Fe223      Fe  0.84173253  0.16232531  0.44873183     1.54400
O224        O  0.83292241  0.18111392  0.00467624    -0.79300
O225        O  0.85704289  0.17304122  0.34765403    -0.77700
O226        O  0.83918328  0.22848948  0.49413209    -0.81900
O227        O  0.78669929  0.20677613  0.45799780    -0.76700
O228        O  0.88584071  0.16177071  0.46116055    -0.78500
O229        O  0.84681246  0.23588353  0.35248114    -0.81200
C230        C  0.78068081  0.17974750  0.45919816     0.99500
C231        C  0.83252271  0.20751322  0.01635732     1.07000
O232        O  0.84487839  0.20020014  0.42228553    -1.10200
O233        O  0.89275152  0.24083505  0.41069893    -0.72600
O234        O  0.85252886  0.26448702  0.42776004    -0.76100
O235        O  0.79673199  0.16074969  0.44221137    -0.76800
C236        C  0.87959281  0.26387652  0.42083320     0.98400
O237        O  0.80441223  0.23998707  0.38461221    -0.74800
O238        O  0.90442974  0.17938223  0.40497760    -0.80000
C239        C  0.85463996  0.14662862  0.35809547     1.01100
C240        C  0.90705878  0.16643818  0.43791446     1.07000
O241        O  0.84983132  0.13918477  0.39434981    -0.75600
C242        C  0.82156417  0.24670566  0.35652690     1.05300
Fe243      Fe  0.67710769  0.23284156  0.06220982     1.65800
Fe244      Fe  0.62484691  0.20653177  0.12099330     1.73200
Fe245      Fe  0.65669635  0.16218368  0.05311449     1.54400
O246        O  0.66549466  0.18106621  0.49723757    -0.79300
O247        O  0.64115219  0.17280073  0.15417319    -0.77700
O248        O  0.65939506  0.22847030  0.00789086    -0.81900
O249        O  0.71177597  0.20658815  0.04399046    -0.76700
O250        O  0.61258875  0.16164096  0.04063819    -0.78500
O251        O  0.65167700  0.23561628  0.14956965    -0.81200
C252        C  0.71778863  0.17956935  0.04270562     0.99500
C253        C  0.66592455  0.20747734  0.48560090     1.07000
O254        O  0.65357089  0.20003468  0.07964184    -1.10200
O255        O  0.60581279  0.24080455  0.09122739    -0.72600
O256        O  0.64612951  0.26437118  0.07445184    -0.76100
O257        O  0.70171771  0.16054688  0.05960171    -0.76800
C258        C  0.61905953  0.26382883  0.08129061     0.98400
O259        O  0.69411921  0.23959044  0.11751378    -0.74800
O260        O  0.59391506  0.17942299  0.09667679    -0.80000
C261        C  0.64361150  0.14640130  0.14369407     1.01100
C262        C  0.59133077  0.16640415  0.06378463     1.07000
O263        O  0.64855088  0.13898691  0.10745269    -0.75600
C264        C  0.67696283  0.24636799  0.14557031     1.05300
Fe265      Fe  0.01740509  0.07210158  0.43724502     1.65800
Fe266      Fe  0.04346680  0.12475448  0.49566553     1.73200
Fe267      Fe  0.08793124  0.09325115  0.42778996     1.54400
O268        O  0.08994966  0.04830462  0.43437088    -0.79300
O269        O  0.07038644  0.15583465  0.47138195    -0.77700
O270        O  0.04394092  0.03756409  0.41935661    -0.81900
O271        O  0.02151336  0.08933238  0.38262605    -0.76700
O272        O  0.11111837  0.10151556  0.48214192    -0.78500
O273        O  0.00914299  0.14350336  0.46573918    -0.81200
C274        C  0.04269157  0.08353142  0.36027907     0.99500
C275        C  0.07104807  0.03198927  0.41770153     1.07000
O276        O  0.05007201  0.09602092  0.45436879    -1.10200
O277        O  0.01451725  0.09795601  0.02437772    -0.72600
O278        O  0.01064241  0.05535880  0.49277646    -0.76100
O279        O  0.06908922  0.08435044  0.37193821    -0.76800
C280        C  0.00381885  0.07264831  0.02066524     0.98400
O281        O  0.98572439  0.10305203  0.44904157    -0.74800
O282        O  0.07725890  0.10861162  0.02888390    -0.80000
C283        C  0.08321499  0.15857606  0.43839075     1.01100
C284        C  0.10367387  0.10627557  0.01842605     1.07000
O285        O  0.08809084  0.13736601  0.41521629    -0.75600
C286        C  0.98620324  0.13016503  0.45565930     1.05300
Fe287      Fe  0.01730723  0.92981168  0.31390169     1.65800
Fe288      Fe  0.04329702  0.87707718  0.25557027     1.73200
Fe289      Fe  0.08775793  0.90849472  0.32349753     1.54400
O290        O  0.08989788  0.95343343  0.31690924    -0.79300
O291        O  0.07008137  0.84591981  0.27994751    -0.77700
O292        O  0.04390362  0.96426366  0.33189930    -0.81900
O293        O  0.02128252  0.91253364  0.36850880    -0.76700
O294        O  0.11098802  0.90019198  0.26921263    -0.78500
O295        O  0.00888932  0.85843767  0.28544763    -0.81200
C296        C  0.04244885  0.91828530  0.39089172     0.99500
C297        C  0.07101764  0.96978864  0.33356652     1.07000
O298        O  0.04993311  0.90580763  0.29684935    -1.10200
O299        O  0.01446385  0.90397934  0.22679622    -0.72600
O300        O  0.01075031  0.94660153  0.25837902    -0.76100
O301        O  0.06885644  0.91742720  0.37928044    -0.76800
C302        C  0.00386939  0.92933888  0.23050062     0.98400
O303        O  0.98553297  0.89896575  0.30197418    -0.74800
O304        O  0.07717776  0.89309726  0.22241578    -0.80000
C305        C  0.08283459  0.84316953  0.31298600     1.01100
C306        C  0.10357800  0.89543647  0.23292551     1.07000
O307        O  0.08778210  0.86439168  0.33610152    -0.75600
C308        C  0.98595796  0.87183964  0.29542791     1.05300
Fe309      Fe  0.17717316  0.26885766  0.43980180     1.65800
Fe310      Fe  0.12479396  0.29516061  0.38119237     1.73200
Fe311      Fe  0.15673990  0.33953047  0.44888778     1.54400
O312        O  0.16557178  0.32068914  0.00479467    -0.79300
O313        O  0.14115397  0.32878349  0.34786017    -0.77700
O314        O  0.15964119  0.27324591  0.49422296    -0.81900
O315        O  0.21190062  0.29512384  0.45785758    -0.76700
O316        O  0.11263272  0.34013878  0.46143817    -0.78500
O317        O  0.15149563  0.26595726  0.35263281    -0.81200
C318        C  0.21785438  0.32215970  0.45916867     0.99500
C319        C  0.16608184  0.29428522  0.01647387     1.07000
O320        O  0.15358533  0.30166193  0.42244450    -1.10200
O321        O  0.10576315  0.26099664  0.41118501    -0.72600
O322        O  0.14609456  0.23735787  0.42777209    -0.76100
O323        O  0.20174286  0.34115343  0.44229481    -0.76800
C324        C  0.11899751  0.23795052  0.42108636     0.98400
O325        O  0.19404108  0.26203772  0.38440297    -0.74800
O326        O  0.09392240  0.32240794  0.40541899    -0.80000
C327        C  0.14364917  0.35519418  0.35827479     1.01100
C328        C  0.09136286  0.33545278  0.43829559     1.07000
O329        O  0.14858794  0.36265049  0.39449723    -0.75600
C330        C  0.17679323  0.25521372  0.35648115     1.05300
Fe331      Fe  0.32152210  0.26898095  0.06196481     1.65800
Fe332      Fe  0.37357263  0.29532678  0.12106568     1.73200
Fe333      Fe  0.34191093  0.33965771  0.05309926     1.54400
O334        O  0.33313063  0.32089089  0.49716750    -0.79300
O335        O  0.35700580  0.32894039  0.15423588    -0.77700
O336        O  0.33930518  0.27350038  0.00769546    -0.81900
O337        O  0.28682942  0.29525208  0.04382621    -0.76700
O338        O  0.38604623  0.34009444  0.04072184    -0.78500
O339        O  0.34678486  0.26609995  0.14941195    -0.81200
C340        C  0.28081020  0.32227780  0.04258079     0.99500
C341        C  0.33270223  0.29450063  0.48547217     1.07000
O342        O  0.34496018  0.30179404  0.07958259    -1.10200
O343        O  0.39279603  0.26117985  0.09127198    -0.75800
O344        O  0.35259545  0.23753203  0.07414755    -0.76100
O345        O  0.29687588  0.34130413  0.05949129    -0.76800
C346        C  0.37964400  0.23814410  0.08115294     0.98400
O347        O  0.30442876  0.26203072  0.11720228    -0.74800
O348        O  0.40450931  0.32258239  0.09702557    -0.80000
C349        C  0.35474882  0.35535670  0.14376473     1.01100
C350        C  0.40722565  0.33543603  0.06403270     1.07000
O351        O  0.35001892  0.36279973  0.10748916    -0.75600
C352        C  0.32154153  0.25528412  0.14531387     1.05300
Fe353      Fe  0.01721534  0.57303424  0.06483626     1.65800
Fe354      Fe  0.04345246  0.62526208  0.00593975     1.73200
Fe355      Fe  0.08788099  0.59348102  0.07372300     1.54400
O356        O  0.06908005  0.58469482  0.12967189    -0.79300
O357        O  0.07711635  0.60891726  0.47264527    -0.77700
O358        O  0.02167254  0.59079358  0.11911693    -0.81900
O359        O  0.04352737  0.53836584  0.08301668    -0.76700
O360        O  0.08840134  0.63760211  0.08615170    -0.78500
O361        O  0.01429531  0.59844559  0.47749933    -0.81200
C362        C  0.07056018  0.53237575  0.08424710     0.99500
C363        C  0.04268021  0.58426342  0.14136606     1.07000
O364        O  0.05000255  0.59655431  0.04728096    -1.10200
O365        O  0.00927253  0.64432426  0.03587031    -0.72600
O366        O  0.98567589  0.60403288  0.05268496    -0.76100
O367        O  0.08954594  0.54845363  0.06728097    -0.76800
C368        C  0.98624766  0.63110856  0.04587647     0.98400
O369        O  0.01032950  0.55600290  0.00954231    -0.74800
O370        O  0.07063059  0.65619990  0.03007961    -0.80000
C371        C  0.10353446  0.60653475  0.48307081     1.01100
C372        C  0.08365456  0.65882861  0.06295378     1.07000
O373        O  0.11099135  0.60162532  0.01930187    -0.75600
C374        C  0.00353736  0.57316563  0.48149711     1.05300
Fe375      Fe  0.01732033  0.42865784  0.18697340     1.65800
Fe376      Fe  0.04354484  0.37639691  0.24579297     1.73200
Fe377      Fe  0.08801446  0.40827634  0.17808552     1.54400
O378        O  0.06924320  0.41710276  0.12215702    -0.79300
O379        O  0.07722476  0.39268327  0.27909583    -0.77700
O380        O  0.02186572  0.41085458  0.13274063    -0.81900
O381        O  0.04360713  0.46334510  0.16883350    -0.76700
O382        O  0.08857830  0.36415714  0.16559960    -0.78500
O383        O  0.01444139  0.40323055  0.27429433    -0.81200
C384        C  0.07062749  0.46937564  0.16762816     0.99500
C385        C  0.04283953  0.41751466  0.11050538     1.07000
O386        O  0.05011617  0.40515023  0.20451781    -1.10200
O387        O  0.00930914  0.35737126  0.21590673    -0.72600
O388        O  0.98575761  0.39768518  0.19909278    -0.76100
O389        O  0.08963331  0.45330638  0.18457149    -0.76800
C390        C  0.98629030  0.37061275  0.20591483     0.98400
O391        O  0.01040283  0.44567866  0.24225851    -0.74800
O392        O  0.07068460  0.34546100  0.22154991    -0.80000
C393        C  0.10363867  0.39519025  0.26869651     1.01100
C394        C  0.08374530  0.34288365  0.18868838     1.07000
O395        O  0.11110891  0.40014399  0.23248483    -0.75600
C396        C  0.00368592  0.42851693  0.27033847     1.05300
Fe397      Fe  0.98093129  0.92877063  0.06454472     1.65800
Fe398      Fe  0.95457851  0.87648550  0.00582234     1.73200
Fe399      Fe  0.91023353  0.90845264  0.07359554     1.54400
O400        O  0.92906811  0.91730341  0.12947960    -0.79300
O401        O  0.92090650  0.89285156  0.47258198    -0.77700
O402        O  0.97646930  0.91114057  0.11889579    -0.81900
O403        O  0.95470174  0.96351835  0.08263530    -0.76700
O404        O  0.90964248  0.86433644  0.08614067    -0.78500
O405        O  0.98370884  0.90323282  0.47724158    -0.81200
C406        C  0.92768009  0.96954277  0.08391018     0.99500
C407        C  0.95547290  0.91775705  0.14113133     1.07000
O408        O  0.94810333  0.90525690  0.04712213    -1.10200
O409        O  0.98881665  0.85741306  0.03564211    -0.72600
O410        O  0.01242519  0.89770147  0.05244385    -0.76100
O411        O  0.90865788  0.95347046  0.06702122    -0.76800
C412        C  0.01185602  0.87062742  0.04560621     0.98400
O413        O  0.98777598  0.94569994  0.00920714    -0.74800
O414        O  0.92740462  0.84559860  0.03013307    -0.80000
C415        C  0.89450416  0.89537106  0.48302073     1.01100
C416        C  0.91440803  0.84304320  0.06304868     1.07000
O417        O  0.88706825  0.90031428  0.01924905    -0.75600
C418        C  0.99449219  0.92850497  0.48116862     1.05300
Fe419      Fe  0.98096334  0.07320526  0.18678918     1.65800
Fe420      Fe  0.95466906  0.12548902  0.24559342     1.73200
Fe421      Fe  0.91027580  0.09355899  0.17786619     1.54400
O422        O  0.92909359  0.08476851  0.12192406    -0.79300
O423        O  0.92101217  0.10917366  0.27890603    -0.77700
O424        O  0.97650424  0.09087950  0.13245482    -0.81900
O425        O  0.95472723  0.03849045  0.16865152    -0.76700
O426        O  0.90966002  0.13767282  0.16539012    -0.78500
O427        O  0.98383345  0.09870868  0.27410833    -0.81200
C428        C  0.92770586  0.03247824  0.16739970     0.99500
C429        C  0.95549411  0.08431604  0.11022545     1.07000
O430        O  0.94815177  0.09672596  0.20429201    -1.10200
O431        O  0.98885124  0.14453694  0.21567747    -0.72600
O432        O  0.01245736  0.10423256  0.19890923    -0.76100
O433        O  0.90869624  0.04853804  0.18435398    -0.76800
C434        C  0.01188092  0.13130746  0.20570933     0.98400
O435        O  0.98782190  0.05624305  0.24211086    -0.74800
O436        O  0.92749406  0.15639594  0.22135151    -0.80000
C437        C  0.89460736  0.10662465  0.26849964     1.01100
C438        C  0.91445092  0.15895462  0.18847952     1.07000
O439        O  0.88715775  0.10165495  0.23228364    -0.75600
C440        C  0.99460363  0.07342620  0.27013247     1.05300
Fe441      Fe  0.82038027  0.73245301  0.06241424     1.65800
Fe442      Fe  0.87301543  0.70640604  0.12085263     1.73200
Fe443      Fe  0.84156143  0.66195855  0.05287752     1.54400
O444        O  0.79661861  0.65990672  0.05946656    -0.79300
O445        O  0.90415660  0.67961484  0.09641448    -0.77700
O446        O  0.78590180  0.70590732  0.04439353    -0.81900
O447        O  0.83772742  0.72840074  0.00784368    -0.76700
O448        O  0.84983052  0.63870395  0.10714542    -0.78500
O449        O  0.89172307  0.74086832  0.09111453    -0.81200
C450        C  0.83186509  0.70725922  0.48546804     0.99500
C451        C  0.78031951  0.67880540  0.04275787     1.07000
O452        O  0.84431451  0.69979907  0.07952348    -1.10200
O453        O  0.84608856  0.73522031  0.14964841    -0.72600
O454        O  0.80354017  0.73907133  0.11790921    -0.76100
O455        O  0.83265681  0.68085141  0.49707680    -0.76800
C456        C  0.82075386  0.74586513  0.14588364     0.98400
O457        O  0.85123804  0.76419762  0.07435662    -0.74800
O458        O  0.85696011  0.67250175  0.15394979    -0.80000
C459        C  0.90688083  0.66679188  0.06341146     1.01100
C460        C  0.85460390  0.64610334  0.14343246     1.07000
O461        O  0.88565907  0.66184923  0.04029893    -0.75600
C462        C  0.87834267  0.76379111  0.08103458     1.05300
Fe463      Fe  0.67808503  0.73254221  0.43911446     1.65800
Fe464      Fe  0.62530435  0.70650905  0.38089455     1.73200
Fe465      Fe  0.65690083  0.66205308  0.44869269     1.54400
O466        O  0.70182653  0.65999622  0.44193802    -0.79300
O467        O  0.59422764  0.67967062  0.40533133    -0.77700
O468        O  0.71262181  0.70598727  0.45694515    -0.81900
O469        O  0.66095108  0.72851730  0.49380407    -0.76700
O470        O  0.64858380  0.63884075  0.39441595    -0.78500
O471        O  0.60663802  0.74090164  0.41080995    -0.81200
C472        C  0.66672247  0.70732932  0.01614593     0.99500
C473        C  0.71817425  0.67887620  0.45858078     1.07000
O474        O  0.65409551  0.69989784  0.42210831    -1.10200
O475        O  0.65210796  0.73537851  0.35206455    -0.72600
O476        O  0.69475808  0.73917199  0.38353821    -0.76100
O477        O  0.66587509  0.68093055  0.00448875    -0.76800
C478        C  0.67744601  0.74601615  0.35570382     0.98400
O479        O  0.64714928  0.76426956  0.42735389    -0.74800
O480        O  0.64135346  0.67266896  0.34768063    -0.80000
C481        C  0.59154247  0.66687689  0.43835202     1.01100
C482        C  0.64377226  0.64626821  0.35815261     1.07000
O483        O  0.61280463  0.66193165  0.46140250    -0.75600
C484        C  0.62002217  0.76383427  0.42081947     1.05300
Fe485      Fe  0.48069664  0.92978312  0.18746029     1.65800
Fe486      Fe  0.45468260  0.87688681  0.24547342     1.73200
Fe487      Fe  0.41017833  0.90865279  0.17784003     1.54400
O488        O  0.40816649  0.95357582  0.18466509    -0.79300
O489        O  0.42785385  0.84585999  0.22091335    -0.77700
O490        O  0.45416520  0.96435683  0.16969376    -0.81900
O491        O  0.47662840  0.91269362  0.13276332    -0.76700
O492        O  0.38699167  0.90029255  0.23213368    -0.78500
O493        O  0.48906350  0.85830128  0.21546195    -0.81200
C494        C  0.45545544  0.91851256  0.11042414     0.99500
C495        C  0.42705794  0.96991945  0.16803395     1.07000
O496        O  0.44804071  0.90577821  0.20439739    -1.10200
O497        O  0.48356105  0.90363963  0.27441768    -0.72600
O498        O  0.48736532  0.94635711  0.24309874    -0.76100
O499        O  0.42904837  0.91767162  0.12205150    -0.76800
C500        C  0.49420218  0.92898801  0.27088365     0.98400
O501        O  0.51243397  0.89885011  0.19912815    -0.74800
O502        O  0.42083845  0.89282435  0.27878343    -0.80000
C503        C  0.41494945  0.84326168  0.18796281     1.01100
C504        C  0.39443614  0.89535355  0.26836153     1.07000
O505        O  0.40996503  0.86457524  0.16501675    -0.75600
C506        C  0.51200298  0.87171413  0.20557046     1.05300
Fe507      Fe  0.48078313  0.07220097  0.06452096     1.65800
Fe508      Fe  0.45481636  0.12497126  0.00621013     1.73200
Fe509      Fe  0.41029647  0.09343211  0.07400908     1.54400
O510        O  0.40820190  0.04850141  0.06729678    -0.79300
O511        O  0.42801769  0.15607637  0.03065437    -0.77700
O512        O  0.45419081  0.03769362  0.08233189    -0.81900
O513        O  0.47668550  0.08938708  0.11917991    -0.76700
O514        O  0.38711569  0.10178787  0.01972160    -0.78500
O515        O  0.48921339  0.14360192  0.03610798    -0.81200
C516        C  0.45549017  0.08358032  0.14149572     0.99500
C517        C  0.42707966  0.03214456  0.08394614     1.07000
O518        O  0.44815950  0.09618964  0.04743281    -1.10200
O519        O  0.48367528  0.09812201  0.47739814    -0.72600
O520        O  0.48749005  0.05550223  0.00896540    -0.76100
O521        O  0.42910357  0.08443036  0.12981765    -0.76800
C522        C  0.49433084  0.07279019  0.48109296     0.98400
O523        O  0.51253984  0.10308938  0.05276607    -0.74800
O524        O  0.42095278  0.10899457  0.47298156    -0.80000
C525        C  0.41522537  0.15876909  0.06367755     1.01100
C526        C  0.39454662  0.10660132  0.48345717     1.07000
O527        O  0.41024268  0.13751486  0.08672134    -0.75600
C528        C  0.51213240  0.13020153  0.04613007     1.05300
Fe529      Fe  0.32026131  0.23261144  0.31263280     1.65800
Fe530      Fe  0.37305763  0.20658418  0.37086956     1.73200
Fe531      Fe  0.34148325  0.16211878  0.30308707     1.54400
O532        O  0.29655062  0.16005398  0.30980149    -0.79300
O533        O  0.40412455  0.17969073  0.34650438    -0.77700
O534        O  0.28570837  0.20604502  0.29482753    -0.81900
O535        O  0.33734083  0.22856776  0.25791063    -0.76700
O536        O  0.34981972  0.13893727  0.35739966    -0.78500
O537        O  0.39173690  0.24091956  0.34089190    -0.81200
C538        C  0.33160607  0.20735505  0.23559234     0.99500
C539        C  0.28018759  0.17892530  0.29315262     1.07000
O540        O  0.34426425  0.19997072  0.32965040    -1.10200
O541        O  0.34629392  0.23551618  0.39966172    -0.72600
O542        O  0.30362575  0.23928930  0.36823613    -0.76100
O543        O  0.33250181  0.18096488  0.24727563    -0.76800
C544        C  0.32095928  0.24616614  0.39603277     0.98400
O545        O  0.35123301  0.26432007  0.32434330    -0.74800
O546        O  0.35698008  0.17278981  0.40412495    -0.80000
C547        C  0.40683131  0.16692022  0.31346961     1.01100
C548        C  0.35461905  0.14638065  0.39366528     1.07000
O549        O  0.38558303  0.16200883  0.29038493    -0.75600
C550        C  0.37836360  0.26386002  0.33087892     1.05300
Fe551      Fe  0.17785991  0.23235520  0.18942437     1.65800
Fe552      Fe  0.12522717  0.20634192  0.13096154     1.73200
Fe553      Fe  0.15662783  0.16187318  0.19893550     1.54400
O554        O  0.20159720  0.15975749  0.19245048    -0.79300
O555        O  0.09410527  0.17949271  0.15525446    -0.77700
O556        O  0.21235711  0.20579151  0.20733539    -0.81900
O557        O  0.16058668  0.22829276  0.24403567    -0.76700
O558        O  0.14832317  0.13865774  0.14460223    -0.78500
O559        O  0.10648458  0.24072115  0.16081585    -0.81200
C560        C  0.16640556  0.20712980  0.26639231     0.99500
C561        C  0.21793103  0.17868758  0.20904774     1.07000
O562        O  0.15392589  0.19971416  0.17229826    -1.10200
O563        O  0.15207800  0.23524848  0.10224736    -0.72600
O564        O  0.19464976  0.23903920  0.13391238    -0.76100
O565        O  0.16554724  0.18072747  0.25476253    -0.76800
C566        C  0.17739711  0.24591128  0.10601798     0.98400
O567        O  0.14695489  0.26407489  0.17757611    -0.74800
O568        O  0.14134934  0.17249731  0.09781066    -0.80000
C569        C  0.09132475  0.16677053  0.18830990     1.01100
C570        C  0.14359285  0.14608452  0.10830599     1.07000
O571        O  0.11251661  0.16185788  0.21148691    -0.75600
C572        C  0.11984920  0.26364648  0.17090181     1.05300
Fe573      Fe  0.51726230  0.92883058  0.43727883     1.65800
Fe574      Fe  0.54359666  0.87652051  0.49594712     1.73200
Fe575      Fe  0.58791642  0.90841425  0.42808198     1.54400
O576        O  0.56897481  0.91715750  0.37220394    -0.79300
O577        O  0.57730722  0.89283405  0.02914361    -0.77700
O578        O  0.52155715  0.91116527  0.38293161    -0.81900
O579        O  0.54348250  0.96350423  0.41902022    -0.76700
O580        O  0.58854301  0.86429320  0.41563485    -0.78500
O581        O  0.51447259  0.90332488  0.02454577    -0.81200
C582        C  0.57050123  0.96949865  0.41768082     0.99500
C583        C  0.54255014  0.91761128  0.36060010     1.07000
O584        O  0.55007903  0.90526421  0.45462238    -1.10200
O585        O  0.50935230  0.85749786  0.46612250    -0.72600
O586        O  0.48574615  0.89783829  0.44953183    -0.76100
O587        O  0.58952718  0.95342961  0.43455878    -0.76800
C588        C  0.48631375  0.87075112  0.45624910     0.98400
O589        O  0.51060118  0.94581328  0.49260695    -0.74800
O590        O  0.57073461  0.84559140  0.47162938    -0.80000
C591        C  0.60369862  0.89539882  0.01866788     1.01100
C592        C  0.58377801  0.84302096  0.43874969     1.07000
O593        O  0.61111105  0.90035322  0.48243119    -0.75600
C594        C  0.50374982  0.92862960  0.02058337     1.05300
Fe595      Fe  0.51711917  0.07320978  0.31501365     1.65800
Fe596      Fe  0.54349010  0.12535539  0.25605939     1.73200
Fe597      Fe  0.58782657  0.09349352  0.32387476     1.54400
O598        O  0.56903075  0.08469537  0.37980724    -0.79300
O599        O  0.57712760  0.10887358  0.22282473    -0.77700
O600        O  0.52163096  0.09090718  0.36932438    -0.81900
O601        O  0.54335846  0.03847349  0.33310075    -0.76700
O602        O  0.58841274  0.13760610  0.33635903    -0.78500
O603        O  0.51429088  0.09860095  0.22761325    -0.81200
C604        C  0.57038047  0.03243230  0.33426290     0.99500
C605        C  0.54264094  0.08430786  0.39153253     1.07000
O606        O  0.54994744  0.09666654  0.29745356    -1.10200
O607        O  0.50929366  0.14452648  0.28586538    -0.72600
O608        O  0.48566358  0.10429699  0.30290511    -0.76100
O609        O  0.58938352  0.04848729  0.31730606    -0.76800
C610        C  0.48625725  0.13135382  0.29595674     0.98400
O611        O  0.51019378  0.05620438  0.25973613    -0.74800
O612        O  0.57073595  0.15623607  0.28024500    -0.80000
C613        C  0.60353810  0.10643725  0.23325221     1.01100
C614        C  0.58372080  0.15884529  0.31315817     1.07000
O615        O  0.61097946  0.10159529  0.26949813    -0.75600
C616        C  0.50346432  0.07335614  0.23166155     1.05300
Fe617      Fe  0.82023617  0.26943459  0.18905801     1.65800
Fe618      Fe  0.87300004  0.29552332  0.13083209     1.73200
Fe619      Fe  0.84148961  0.33989735  0.19881376     1.54400
O620        O  0.79655846  0.34198420  0.19213034    -0.79300
O621        O  0.90410706  0.32233777  0.15529822    -0.77700
O622        O  0.78572691  0.29597249  0.20697721    -0.81900
O623        O  0.83734527  0.27337058  0.24377847    -0.76700
O624        O  0.84981202  0.36317932  0.14460836    -0.78500
O625        O  0.89167422  0.26108966  0.16062119    -0.81200
C626        C  0.83164883  0.29456490  0.26616094     0.99500
C627        C  0.78020655  0.32308322  0.20873031     1.07000
O628        O  0.84424900  0.30208489  0.17212664    -1.10200
O629        O  0.84617987  0.26667217  0.10195594    -0.72600
O630        O  0.80354522  0.26289988  0.13347708    -0.76100
O631        O  0.83253640  0.32096671  0.25454710    -0.76800
C632        C  0.82084191  0.25603262  0.10562933     0.98400
O633        O  0.85115961  0.23772018  0.17718230    -0.74800
O634        O  0.85691570  0.32940833  0.09775480    -0.80000
C635        C  0.90682977  0.33508492  0.18835338     1.01100
C636        C  0.85457534  0.35579792  0.10831502     1.07000
O637        O  0.88559095  0.33997356  0.21147691    -0.75600
C638        C  0.87828275  0.23815440  0.17060480     1.05300
Fe639      Fe  0.67806964  0.26929032  0.31254046     1.65800
Fe640      Fe  0.62530808  0.29534009  0.37080928     1.73200
Fe641      Fe  0.65694468  0.33980946  0.30303831     1.54400
O642        O  0.70185941  0.34181540  0.30980437    -0.79300
O643        O  0.59425516  0.32221199  0.34638089    -0.77700
O644        O  0.71262251  0.29583194  0.29469486    -0.81900
O645        O  0.66088290  0.27338953  0.25790343    -0.76700
O646        O  0.64862413  0.36300352  0.35733406    -0.78500
O647        O  0.60663365  0.26096561  0.34088099    -0.81200
C648        C  0.66675477  0.29454882  0.23556817     0.99500
C649        C  0.71817962  0.32294311  0.29308229     1.07000
O650        O  0.65411212  0.30195192  0.32960311    -1.10200
O651        O  0.65210332  0.26644029  0.39962061    -0.72600
O652        O  0.69474587  0.26258499  0.36810320    -0.76100
O653        O  0.66593742  0.32095229  0.24721348    -0.76800
C654        C  0.67743425  0.25577280  0.39596642     0.98400
O655        O  0.64713087  0.23757598  0.32429090    -0.74800
O656        O  0.64134481  0.32917069  0.40405184    -0.80000
C657        C  0.59159252  0.33505847  0.31339438     1.01100
C658        C  0.64378396  0.35557401  0.39359146     1.07000
O659        O  0.61285809  0.33998998  0.29033840    -0.75600
C660        C  0.62000877  0.23802377  0.33086644     1.05300
Fe661      Fe  0.48126431  0.57321455  0.43679335     1.65800
Fe662      Fe  0.45492790  0.62529243  0.49585774     1.73200
Fe663      Fe  0.41059626  0.59362363  0.42789841     1.54400
O664        O  0.42937422  0.58482661  0.37197836    -0.79300
O665        O  0.42130514  0.60872753  0.02901656    -0.77700
O666        O  0.47675800  0.59100204  0.38254426    -0.81900
O667        O  0.45497431  0.53853257  0.41865510    -0.76700
O668        O  0.41016197  0.63774049  0.41550547    -0.78500
O669        O  0.48415693  0.59851567  0.02420920    -0.81200
C670        C  0.42794548  0.53252478  0.41744784     0.99500
C671        C  0.45576904  0.58441759  0.36030104     1.07000
O672        O  0.44845696  0.59667237  0.45438930    -1.10200
O673        O  0.48909663  0.64450219  0.46605804    -0.72600
O674        O  0.51272824  0.60427419  0.44896067    -0.76100
O675        O  0.40893192  0.54861253  0.43434815    -0.76800
C676        C  0.51213119  0.63133038  0.45593161     0.98400
O677        O  0.48820260  0.55613567  0.49203748    -0.74800
O678        O  0.42765751  0.65620814  0.47181792    -0.80000
C679        C  0.39489029  0.60644668  0.01854169     1.01100
C680        C  0.41479692  0.65891400  0.43883315     1.07000
O681        O  0.38745090  0.60173857  0.48226438    -0.75600
C682        C  0.49496200  0.57326258  0.02013032     1.05300
Fe683      Fe  0.48124659  0.42879543  0.31481172     1.65800
Fe684      Fe  0.45495380  0.37651301  0.25604495     1.73200
Fe685      Fe  0.41059363  0.40834547  0.32388710     1.54400
O686        O  0.42944850  0.41713225  0.37978037    -0.79300
O687        O  0.42127374  0.39288741  0.22282292    -0.77700
O688        O  0.47688454  0.41116683  0.36917752    -0.81900
O689        O  0.45496878  0.46347449  0.33295961    -0.76700
O690        O  0.41004413  0.36423295  0.33635843    -0.78500
O691        O  0.48410899  0.40328975  0.22751349    -0.81200
C692        C  0.42794021  0.46945737  0.33422850     0.99500
C693        C  0.45585026  0.41759462  0.39145378     1.07000
O694        O  0.44845367  0.40523144  0.29739839    -1.10200
O695        O  0.48917248  0.35745744  0.28589993    -0.72600
O696        O  0.51276520  0.39777146  0.30265323    -0.76100
O697        O  0.40893920  0.45335379  0.31736338    -0.76800
C698        C  0.51220066  0.37069141  0.29586090     0.98400
O699        O  0.48801869  0.44576264  0.25948021    -0.74800
O700        O  0.42776790  0.34559712  0.28027022    -0.80000
C701        C  0.39486734  0.39533440  0.23328642     1.01100
C702        C  0.41475197  0.34299246  0.31316366     1.07000
O703        O  0.38743462  0.40022059  0.26953197    -0.75600
C704        C  0.49484665  0.42858069  0.23148013     1.05300
C705        C  0.41950654  0.50962006  0.38966137    -0.10900
C706        C  0.41950043  0.49235534  0.36203230    -0.12500
C707        C  0.56314430  0.34519913  0.30301110    -0.10900
C708        C  0.53911997  0.35516073  0.29874004    -0.12500
C709        C  0.74072208  0.33158089  0.26491017    -0.10900
C710        C  0.75764958  0.33164688  0.23692211    -0.12500
C711        C  0.59429952  0.18718144  0.32333165    -0.10900
C712        C  0.60452610  0.21108918  0.32767387    -0.12500
C713        C  0.57888944  0.99234391  0.38977380    -0.10900
C714        C  0.57883668  0.00955830  0.36208851    -0.12500
C715        C  0.45935051  0.14691822  0.29880733    -0.10900
C716        C  0.43530718  0.15684576  0.30306904    -0.12500
C717        C  0.24057803  0.17017130  0.23714761    -0.10900
C718        C  0.25758686  0.17028168  0.26505008    -0.12500
C719        C  0.40414090  0.31466540  0.32331610    -0.10900
C720        C  0.39386785  0.29077858  0.32765520    -0.12500
C721        C  0.37294598  0.11289699  0.45263344    -0.10900
C722        C  0.36097406  0.12480621  0.42449988    -0.12500
C723        C  0.51788125  0.06664298  0.45511213    -0.10900
C724        C  0.53468023  0.07296171  0.42925271    -0.12500
C725        C  0.47992208  0.06708498  0.20576697    -0.10900
C726        C  0.46319335  0.07294545  0.17965602    -0.12500
C727        C  0.41846626  0.00952718  0.11202245    -0.10900
C728        C  0.41846645  0.99253108  0.13993318    -0.12500
C729        C  0.51771863  0.93507913  0.29694761    -0.10900
C730        C  0.53452747  0.92881987  0.32282433    -0.12500
C731        C  0.48011704  0.93492412  0.04633048    -0.10900
C732        C  0.46323540  0.92912552  0.07228737    -0.12500
C733        C  0.56307168  0.65681444  0.44878042    -0.10900
C734        C  0.53903244  0.64689225  0.45306836    -0.12500
C735        C  0.60454227  0.79077231  0.42407776    -0.10900
C736        C  0.59433033  0.81468298  0.42849940    -0.12500
C737        C  0.75774464  0.67022772  0.01460762    -0.10900
C738        C  0.74077468  0.67025896  0.48667269    -0.12500
C739        C  0.90393112  0.18729243  0.17821050    -0.10900
C740        C  0.89374815  0.21121173  0.17380055    -0.12500
C741        C  0.03879087  0.14683127  0.20285444    -0.10900
C742        C  0.06283365  0.15674055  0.19862840    -0.12500
C743        C  0.90392713  0.81469131  0.07336942    -0.10900
C744        C  0.89378962  0.79075217  0.07781955    -0.12500
C745        C  0.91927194  0.99241595  0.11179446    -0.10900
C746        C  0.91928092  0.00962886  0.13949558    -0.12500
C747        C  0.09423247  0.31452845  0.17844041    -0.10900
C748        C  0.10438494  0.29059137  0.17407228    -0.12500
C749        C  0.95934868  0.35510452  0.20302151    -0.10900
C750        C  0.93530881  0.34517142  0.19873691    -0.12500
C751        C  0.07905310  0.49226924  0.13978455    -0.10900
C752        C  0.07902516  0.50951202  0.11211682    -0.12500
C753        C  0.93534111  0.65666275  0.05307173    -0.10900
C754        C  0.95934723  0.64666357  0.04878908    -0.12500
C755        C  0.36120026  0.37694658  0.17453774    -0.10900
C756        C  0.37325007  0.38895315  0.20252693    -0.12500
C757        C  0.32127540  0.28654003  0.44780134    -0.10900
C758        C  0.31487027  0.26974670  0.42198019    -0.12500
C759        C  0.32103735  0.21504129  0.19738239    -0.10900
C760        C  0.31522432  0.23175222  0.17122204    -0.12500
C761        C  0.39522889  0.21126209  0.07834755    -0.10900
C762        C  0.40517742  0.18723524  0.07409984    -0.12500
C763        C  0.24070616  0.33062173  0.48704081    -0.10900
C764        C  0.25793016  0.33067927  0.01472095    -0.12500
C765        C  0.13725530  0.37679122  0.32749196    -0.10900
C766        C  0.12523010  0.38880791  0.29949016    -0.12500
C767        C  0.18356359  0.26950436  0.08011443    -0.10900
C768        C  0.17731616  0.28633846  0.05426340    -0.12500
C769        C  0.18301180  0.23164952  0.33057518    -0.10900
C770        C  0.17709013  0.21489087  0.30451519    -0.12500
C771        C  0.98030484  0.93552943  0.20457861    -0.10900
C772        C  0.96346433  0.92918961  0.17878725    -0.12500
C773        C  0.01798187  0.93476156  0.45517956    -0.10900
C774        C  0.03469654  0.92889034  0.42904960    -0.12500
C775        C  0.12524929  0.11259495  0.04929701    -0.10900
C776        C  0.13719864  0.12450611  0.07746217    -0.12500
C777        C  0.10344166  0.21104366  0.42397100    -0.10900
C778        C  0.09341827  0.18703555  0.42815465    -0.12500
C779        C  0.07963325  0.00937694  0.38959414    -0.10900
C780        C  0.07962618  0.99238419  0.36167717    -0.12500
C781        C  0.96346449  0.07292767  0.07251506    -0.10900
C782        C  0.98025230  0.06655035  0.04665374    -0.12500
C783        C  0.01815763  0.06714252  0.29602113    -0.10900
C784        C  0.03493819  0.07295237  0.32209819    -0.12500
C785        C  0.53908392  0.14564802  0.04926372    -0.10900
C786        C  0.56299658  0.15585746  0.05358059    -0.12500
C787        C  0.68355698  0.23225225  0.42199679    -0.10900
C788        C  0.67723836  0.21547154  0.44787499    -0.12500
C789        C  0.68326215  0.26993604  0.17142621    -0.10900
C790        C  0.67742369  0.28676146  0.19744524    -0.12500
C791        C  0.63718928  0.12478034  0.17444169    -0.10900
C792        C  0.62514629  0.11278484  0.20245252    -0.12500
C793        C  0.95929947  0.14567585  0.45243934    -0.10900
C794        C  0.93539505  0.15588917  0.44807598    -0.12500
C795        C  0.86099855  0.12502074  0.32730655    -0.10900
C796        C  0.87300328  0.11298973  0.29929235    -0.12500
C797        C  0.81472041  0.23242538  0.07973786    -0.10900
C798        C  0.82107687  0.21553677  0.05400062    -0.12500
C799        C  0.81527780  0.27020222  0.33056856    -0.10900
C800        C  0.82111235  0.28686619  0.30437306    -0.12500
C801        C  0.74065153  0.17118257  0.01480986    -0.10900
C802        C  0.75785182  0.17127281  0.48709881    -0.12500
C803        C  0.62555823  0.38912580  0.45255765    -0.10900
C804        C  0.63749096  0.37717511  0.42441909    -0.12500
C805        C  0.46379058  0.42878949  0.42926062    -0.10900
C806        C  0.48057399  0.43505265  0.45515604    -0.12500
C807        C  0.53525433  0.42902613  0.17962199    -0.10900
C808        C  0.51843340  0.43486730  0.20564595    -0.12500
C809        C  0.59364531  0.31480550  0.07417635    -0.10900
C810        C  0.60356045  0.29076543  0.07846406    -0.12500
C811        C  0.43561157  0.34589815  0.05388826    -0.10900
C812        C  0.45954610  0.35605752  0.04953272    -0.12500
C813        C  0.62553610  0.61277108  0.29917312    -0.10900
C814        C  0.63748055  0.62467773  0.32732380    -0.12500
C815        C  0.48060053  0.56673550  0.29681442    -0.10900
C816        C  0.46375732  0.57305843  0.32261168    -0.12500
C817        C  0.51849490  0.56695114  0.04603685    -0.10900
C818        C  0.53519876  0.57278807  0.07219270    -0.12500
C819        C  0.57988432  0.49245890  0.11200336    -0.10900
C820        C  0.57991693  0.50944336  0.13992836    -0.12500
C821        C  0.86090893  0.62448699  0.17424457    -0.10900
C822        C  0.87283037  0.61253719  0.20239386    -0.12500
C823        C  0.03470035  0.57294449  0.17909971    -0.10900
C824        C  0.01787786  0.56661306  0.20493147    -0.12500
C825        C  0.96323218  0.57273372  0.42949413    -0.10900
C826        C  0.97998996  0.56687610  0.45558928    -0.12500
C827        C  0.87291044  0.38933230  0.04945123    -0.10900
C828        C  0.86091717  0.37742125  0.07755861    -0.12500
C829        C  0.01788177  0.43536653  0.04722888    -0.10900
C830        C  0.03480463  0.42899406  0.07290289    -0.12500
C831        C  0.96358773  0.42901008  0.32261331    -0.10900
C832        C  0.98024479  0.43483451  0.29639447    -0.12500
C833        C  0.90516094  0.31478600  0.42811808    -0.10900
C834        C  0.89518728  0.29076672  0.42377752    -0.12500
C835        C  0.91863224  0.49242411  0.39001202    -0.10900
C836        C  0.91859597  0.50934078  0.36201546    -0.12500
C837        C  0.03917404  0.35639269  0.45293512    -0.10900
C838        C  0.06305385  0.34610820  0.44850448    -0.12500
C839        C  0.03880614  0.64564208  0.29917593    -0.10900
C840        C  0.06272351  0.65582225  0.30352388    -0.12500
C841        C  0.12512440  0.61302517  0.45229688    -0.10900
C842        C  0.13713295  0.62508916  0.42430960    -0.12500
C843        C  0.09287406  0.81467985  0.32335398    -0.10900
C844        C  0.10282776  0.79065099  0.32762278    -0.12500
C845        C  0.37328407  0.61283782  0.04931255    -0.10900
C846        C  0.36122572  0.62485195  0.07729283    -0.12500
C847        C  0.45942642  0.64571774  0.20239433    -0.10900
C848        C  0.43551574  0.65593605  0.19799553    -0.12500
C849        C  0.24037940  0.67125100  0.26439433    -0.10900
C850        C  0.25768163  0.67117769  0.23679711    -0.12500
C851        C  0.39482755  0.79080522  0.17325508    -0.10900
C852        C  0.40479319  0.81482944  0.17751094    -0.12500
C853        C  0.03878618  0.85508470  0.04842383    -0.10900
C854        C  0.06282637  0.84512597  0.05262659    -0.12500
C855        C  0.12518495  0.88912347  0.20210902    -0.10900
C856        C  0.13713863  0.87718905  0.17397327    -0.12500
C857        C  0.18325983  0.73217769  0.17157221    -0.10900
C858        C  0.17688802  0.71530685  0.19732303    -0.12500
C859        C  0.17712340  0.78690586  0.44689536    -0.10900
C860        C  0.18290833  0.77025996  0.42064720    -0.12500
C861        C  0.09421871  0.68717280  0.07307604    -0.10900
C862        C  0.10443382  0.71108695  0.07735572    -0.12500
C863        C  0.45939235  0.85523577  0.45336297    -0.10900
C864        C  0.43536922  0.84529024  0.44904844    -0.12500
C865        C  0.36095483  0.87713480  0.32738877    -0.10900
C866        C  0.37285209  0.88906599  0.29921168    -0.12500
C867        C  0.31517155  0.73220435  0.32995720    -0.10900
C868        C  0.32141365  0.71543720  0.30402435    -0.12500
C869        C  0.31512195  0.77002577  0.08040716    -0.10900
C870        C  0.32101805  0.78686046  0.05443092    -0.12500
C871        C  0.24065172  0.83157210  0.01475499    -0.10900
C872        C  0.25767554  0.83153480  0.48686962    -0.12500
C873        C  0.39409721  0.71119734  0.42441012    -0.10900
C874        C  0.40429107  0.68727865  0.42872315    -0.12500
C875        C  0.56286123  0.84603935  0.19806097    -0.10900
C876        C  0.53894864  0.85625608  0.20238131    -0.12500
C877        C  0.67715747  0.78637385  0.30393451    -0.10900
C878        C  0.68355928  0.76956768  0.32973645    -0.12500
C879        C  0.68310032  0.73179192  0.08047257    -0.10900
C880        C  0.67729028  0.71505897  0.05433722    -0.12500
C881        C  0.63733423  0.87704182  0.07742316    -0.10900
C882        C  0.62533030  0.88906793  0.04941723    -0.12500
C883        C  0.60316715  0.71121882  0.17335466    -0.10900
C884        C  0.59326709  0.68717488  0.17763172    -0.12500
C885        C  0.93514266  0.84610417  0.30306841    -0.10900
C886        C  0.95902247  0.85637093  0.29865090    -0.12500
C887        C  0.87289629  0.88899987  0.45224908    -0.10900
C888        C  0.86090984  0.87696436  0.42423322    -0.12500
C889        C  0.82079326  0.78621421  0.19773146    -0.10900
C890        C  0.81452703  0.76938035  0.17189060    -0.12500
C891        C  0.81525029  0.73182806  0.42133868    -0.10900
C892        C  0.82117262  0.71505400  0.44737212    -0.12500
C893        C  0.74039459  0.83061956  0.23709089    -0.10900
C894        C  0.75757216  0.83060419  0.26481110    -0.12500
C895        C  0.89475528  0.71098942  0.32800567    -0.10900
C896        C  0.90470812  0.68695351  0.32374683    -0.12500
Fe897      Fe  0.82111726  0.76888923  0.81207658     1.65800
Fe898      Fe  0.87349824  0.79523379  0.87061554     1.73200
Fe899      Fe  0.84145857  0.83956668  0.80291446     1.54400
O900        O  0.83259721  0.82066052  0.74704718    -0.79300
O901        O  0.85721585  0.82893654  0.90389806    -0.77700
O902        O  0.83871547  0.77325619  0.75769496    -0.81900
O903        O  0.78639327  0.79513069  0.79396807    -0.76700
O904        O  0.88554463  0.84021041  0.79029359    -0.78500
O905        O  0.84676082  0.76612506  0.89927800    -0.81200
C906        C  0.78039704  0.82215617  0.79270707     0.99500
C907        C  0.83214422  0.79424087  0.73542373     1.07000
O908        O  0.84468136  0.80171213  0.82939758    -1.10200
O909        O  0.89249418  0.76097159  0.84073398    -0.72600
O910        O  0.85214898  0.73736971  0.82418372    -0.76100
O911        O  0.79647457  0.84115383  0.80961208    -0.76800
C912        C  0.87923949  0.73792866  0.83087948     0.98400
O913        O  0.80423161  0.76214009  0.86745971    -0.74800
O914        O  0.90435520  0.82239315  0.84621215    -0.80000
C915        C  0.85460423  0.85533106  0.89346317     1.01100
C916        C  0.90685230  0.83547032  0.81335193     1.07000
O917        O  0.84960673  0.86275144  0.85724577    -0.75600
C918        C  0.82146743  0.75537235  0.89542136     1.05300
Fe919      Fe  0.67684758  0.76892944  0.68977565     1.65800
Fe920      Fe  0.62478101  0.79535743  0.63076915     1.73200
Fe921      Fe  0.65651485  0.83961335  0.69876951     1.54400
O922        O  0.66531210  0.82078404  0.75465477    -0.79300
O923        O  0.64132764  0.82900959  0.59765952    -0.77700
O924        O  0.65906009  0.77341480  0.74404820    -0.81900
O925        O  0.71154643  0.79517096  0.70795885    -0.76700
O926        O  0.61240284  0.84010809  0.71120846    -0.78500
O927        O  0.65156030  0.76615972  0.60232481    -0.81200
C928        C  0.71756768  0.82219454  0.70918988     0.99500
C929        C  0.66570605  0.79438319  0.76630251     1.07000
O930        O  0.65341291  0.80176997  0.67223268    -1.10200
O931        O  0.60557050  0.76116006  0.66048522    -0.72600
O932        O  0.64578286  0.73749722  0.67754356    -0.76100
O933        O  0.70151784  0.84121384  0.69225341    -0.76800
C934        C  0.61873310  0.73811256  0.67055681     0.98400
O935        O  0.69392223  0.76202920  0.63451801    -0.74800
O936        O  0.59387876  0.82260488  0.65493087    -0.80000
C937        C  0.64367836  0.85541046  0.60817060     1.01100
C938        C  0.59120867  0.83548673  0.68791494     1.07000
O939        O  0.64842038  0.86281626  0.64445250    -0.75600
C940        C  0.67680140  0.75532193  0.60639868     1.05300
Fe941      Fe  0.32049957  0.76933017  0.93935847     1.65800
Fe942      Fe  0.37331585  0.79536921  0.88120302     1.73200
Fe943      Fe  0.34155143  0.83986772  0.94885367     1.54400
O944        O  0.29662257  0.84183848  0.94212233    -0.79300
O945        O  0.40432011  0.82228284  0.90562649    -0.77700
O946        O  0.28590156  0.79583688  0.95715460    -0.81900
O947        O  0.33762993  0.77345240  0.99402240    -0.76700
O948        O  0.34983187  0.86301614  0.89450432    -0.78500
O949        O  0.39197914  0.76106674  0.91126992    -0.81200
C950        C  0.33174571  0.79462634  0.51633527     0.99500
C951        C  0.28030605  0.82294006  0.95878784     1.07000
O952        O  0.34444352  0.80200085  0.92232498    -1.10200
O953        O  0.34659465  0.76640519  0.85237853    -0.72600
O954        O  0.30389645  0.76260195  0.88376175    -0.76100
O955        O  0.33258096  0.82102641  0.50468306    -0.76800
C956        C  0.32126019  0.75574350  0.85597387     0.98400
O957        O  0.35147162  0.73764078  0.92766474    -0.74800
O958        O  0.35729060  0.82914889  0.84786119    -0.80000
C959        C  0.40693525  0.83515554  0.93859860     1.01100
C960        C  0.35473377  0.85555554  0.85826660     1.07000
O961        O  0.38563623  0.84011042  0.96158840    -0.75600
C962        C  0.37860538  0.73811529  0.92120661     1.05300
Fe963      Fe  0.17796291  0.76932626  0.56228268     1.65800
Fe964      Fe  0.12508370  0.79534765  0.62041256     1.73200
Fe965      Fe  0.15665826  0.83980405  0.55260914     1.54400
O966        O  0.20159292  0.84190183  0.55932702    -0.79300
O967        O  0.09400168  0.82219673  0.59598655    -0.77700
O968        O  0.21249549  0.79588786  0.54454033    -0.81900
O969        O  0.16099479  0.77330142  0.50748850    -0.76700
O970        O  0.14829365  0.86301699  0.60688646    -0.78500
O971        O  0.10647188  0.76096674  0.59046054    -0.81200
C972        C  0.16662672  0.79454095  0.98516039     0.99500
C973        C  0.21799855  0.82300156  0.54280358     1.07000
O974        O  0.15389489  0.80195923  0.57920314    -1.10200
O975        O  0.15184408  0.76644505  0.64928494    -0.72600
O976        O  0.19454128  0.76271203  0.61792171    -0.76100
O977        O  0.16566052  0.82093011  0.99683632    -0.76800
C978        C  0.17718682  0.75580376  0.64568283     0.98400
O979        O  0.14701740  0.73760207  0.57397661    -0.74800
O980        O  0.14110342  0.82918974  0.65363629    -0.80000
C981        C  0.09130023  0.83500022  0.56297753     1.01100
C982        C  0.14347834  0.85559358  0.64315449     1.07000
O983        O  0.11255431  0.83991109  0.53989035    -0.75600
C984        C  0.11988605  0.73803322  0.58050643     1.05300
Fe985      Fe  0.32126171  0.73286627  0.68952580     1.65800
Fe986      Fe  0.37353851  0.70658139  0.63070533     1.73200
Fe987      Fe  0.34178815  0.66223021  0.69862220     1.54400
O988        O  0.33302921  0.68110113  0.75450983    -0.79300
O989        O  0.35718657  0.67287044  0.59754068    -0.77700
O990        O  0.33891227  0.72854314  0.74388214    -0.81900
O991        O  0.28661439  0.70658552  0.70772017    -0.76700
O992        O  0.38592159  0.66172809  0.71101724    -0.78500
O993        O  0.34670474  0.73568418  0.60218888    -0.81200
C994        C  0.28063138  0.67956176  0.70902887     0.99500
C995        C  0.33254702  0.70750526  0.76617760     1.07000
O996        O  0.34484826  0.70007955  0.67210371    -1.10200
O997        O  0.39257509  0.74084297  0.66048387    -0.72600
O998        O  0.35224966  0.76440567  0.67730732    -0.76100
O999        O  0.29675330  0.66053407  0.69221633    -0.76800
C1000       C  0.37932273  0.76386664  0.67044494     0.98400
O1001       O  0.30425269  0.73959216  0.63421460    -0.74800
O1002       O  0.40451800  0.67945382  0.65491287    -0.80000
C1003       C  0.35478695  0.64646933  0.60802798     1.01100
C1004       C  0.40715506  0.66646729  0.68781909     1.07000
O1005       O  0.34990888  0.63904995  0.64427634    -0.75600
C1006       C  0.32141232  0.74641765  0.60619314     1.05300
Fe1007     Fe  0.17659834  0.73296792  0.81136697     1.65800
Fe1008     Fe  0.12458129  0.70664945  0.87056217     1.73200
Fe1009     Fe  0.15640406  0.66223448  0.80277376     1.54400
O1010       O  0.16514706  0.68093532  0.74675558    -0.79300
O1011       O  0.14113469  0.67309398  0.90386895    -0.77700
O1012       O  0.15875707  0.72830692  0.75717260    -0.81900
O1013       O  0.21134628  0.70672561  0.79323825    -0.76700
O1014       O  0.11228223  0.66164366  0.79041223    -0.78500
O1015       O  0.15134039  0.73593811  0.89881989    -0.81200
C1016       C  0.21744753  0.67971161  0.79216023     0.99500
C1017       C  0.16546025  0.70731435  0.73499191     1.07000
O1018       O  0.15323633  0.70014250  0.82912501    -1.10200
O1019       O  0.10531953  0.74073665  0.84066409    -0.72600
O1020       O  0.14549242  0.76440636  0.82349544    -0.76100
O1021       O  0.20143184  0.66070708  0.80919537    -0.76800
C1022       C  0.11844218  0.76377817  0.83049296     0.98400
O1023       O  0.19369319  0.74003608  0.86656377    -0.74800
O1024       O  0.09371246  0.67932201  0.84657601    -0.80000
C1025       C  0.14352569  0.64666602  0.89348483     1.01100
C1026       C  0.09107044  0.66634909  0.81366093     1.07000
O1027       O  0.14834947  0.63917858  0.85724453    -0.75600
C1028       C  0.17657835  0.74676657  0.89469380     1.05300
Fe1029     Fe  0.98091069  0.42992265  0.93798140     1.65800
Fe1030     Fe  0.95485775  0.37704975  0.99605555     1.73200
Fe1031     Fe  0.91046557  0.40862717  0.92816288     1.54400
O1032       O  0.90836521  0.45354788  0.93485254    -0.79300
O1033       O  0.92808438  0.34593326  0.97154738    -0.77700
O1034       O  0.95436072  0.46442546  0.92002367    -0.81900
O1035       O  0.97706216  0.41285437  0.88323574    -0.76700
O1036       O  0.88718959  0.40037438  0.98239804    -0.78500
O1037       O  0.98930096  0.35845903  0.96616354    -0.81200
C1038       C  0.95586872  0.41849022  0.86083321     0.99500
C1039       C  0.92724282  0.46990734  0.91823398     1.07000
O1040       O  0.94827061  0.40585267  0.95483842    -1.10200
O1041       O  0.98367738  0.40387632  0.52498353    -0.72600
O1042       O  0.98734017  0.44657126  0.99360224    -0.76100
O1043       O  0.92945326  0.41754939  0.87242297    -0.76800
C1044       C  0.99425860  0.42924469  0.52138149     0.98400
O1045       O  0.01266971  0.39902067  0.94983648    -0.74800
O1046       O  0.92094507  0.39303020  0.52920944    -0.80000
C1047       C  0.91526692  0.34325301  0.93854330     1.01100
C1048       C  0.89456362  0.39553996  0.51867508     1.07000
O1049       O  0.91032746  0.36452112  0.91549946    -0.75600
C1050       C  0.01223774  0.37187419  0.95624408     1.05300
Fe1051     Fe  0.98073850  0.57205347  0.81431001     1.65800
Fe1052     Fe  0.95461745  0.62475947  0.75599891     1.73200
Fe1053     Fe  0.91019843  0.59313500  0.82383280     1.54400
O1054       O  0.90824341  0.54819837  0.81715430    -0.79300
O1055       O  0.92769463  0.65580512  0.78038673    -0.77700
O1056       O  0.95425681  0.53748071  0.83215402    -0.81900
O1057       O  0.97665139  0.58919899  0.86899320    -0.76700
O1058       O  0.88698984  0.60140208  0.76950755    -0.78500
O1059       O  0.98895199  0.64349152  0.78591653    -0.81200
C1060       C  0.95547542  0.58337070  0.89133138     0.99500
C1061       C  0.92715619  0.53189945  0.83383012     1.07000
O1062       O  0.94804973  0.59598022  0.79725382    -1.10200
O1063       O  0.98357273  0.59800021  0.72720128    -0.72600
O1064       O  0.98746308  0.55538055  0.75873782    -0.76100
O1065       O  0.92907486  0.58420521  0.87967100    -0.76800
C1066       C  0.99428664  0.57269321  0.73088549     0.98400
O1067       O  0.01238593  0.60302927  0.80255384    -0.74800
O1068       O  0.92082339  0.60864478  0.72277354    -0.80000
C1069       C  0.91486305  0.65849352  0.81338644     1.01100
C1070       C  0.89441908  0.60622600  0.73323757     1.07000
O1071       O  0.90996826  0.63724213  0.83647942    -0.75600
C1072       C  0.01189880  0.63014436  0.79596477     1.05300
Fe1073     Fe  0.51766413  0.57213824  0.68747263     1.65800
Fe1074     Fe  0.54367919  0.62497290  0.74564113     1.73200
Fe1075     Fe  0.58813753  0.59335162  0.67782114     1.54400
O1076       O  0.59023064  0.54843054  0.68459753    -0.79300
O1077       O  0.57050630  0.65603032  0.72116293    -0.77700
O1078       O  0.54422472  0.53758730  0.66973652    -0.81900
O1079       O  0.52167695  0.58915076  0.63271039    -0.76700
O1080       O  0.61134923  0.60170981  0.73208165    -0.78500
O1081       O  0.50928339  0.64362247  0.71573331    -0.81200
C1082       C  0.54288633  0.58339686  0.61038373     0.99500
C1083       C  0.57133632  0.53205549  0.66803170     1.07000
O1084       O  0.55029376  0.59616072  0.70442598    -1.10200
O1085       O  0.51479950  0.59820466  0.77451988    -0.72600
O1086       O  0.51105299  0.55553710  0.74308155    -0.76100
O1087       O  0.56927886  0.58431632  0.62204247    -0.76800
C1088       C  0.50417332  0.57286198  0.77088612     0.98400
O1089       O  0.48593516  0.60310301  0.69915171    -0.74800
O1090       O  0.57753085  0.60894388  0.77884526    -0.80000
C1091       C  0.58325371  0.65870520  0.68810624     1.01100
C1092       C  0.60393028  0.60651495  0.76835375     1.07000
O1093       O  0.58820329  0.63743458  0.66506583    -0.75600
C1094       C  0.48636294  0.63023420  0.70568435     1.05300
Fe1095     Fe  0.51769570  0.42963351  0.56455157     1.65800
Fe1096     Fe  0.54376395  0.37687825  0.50629745     1.73200
Fe1097     Fe  0.58825351  0.40862560  0.57396343     1.54400
O1098       O  0.59018575  0.45355265  0.56719090    -0.79300
O1099       O  0.57066035  0.34586549  0.53075173    -0.77700
O1100       O  0.54418944  0.46422834  0.58234526    -0.81900
O1101       O  0.52185532  0.41246066  0.61919116    -0.76700
O1102       O  0.61142254  0.40032389  0.51963972    -0.78500
O1103       O  0.50942038  0.35818281  0.53627825    -0.81200
C1104       C  0.54302435  0.41836314  0.64149176     0.99500
C1105       C  0.57128753  0.46984861  0.58390870     1.07000
O1106       O  0.55037804  0.40571788  0.54745761    -1.10200
O1107       O  0.51482291  0.40363581  0.97748437    -0.72600
O1108       O  0.51093966  0.44628125  0.50898779    -0.76100
O1109       O  0.56941969  0.41759266  0.62980452    -0.76800
C1110       C  0.50412340  0.42895392  0.98114784     0.98400
O1111       O  0.48601091  0.39866595  0.55285734    -0.74800
O1112       O  0.57756680  0.39291323  0.97299343    -0.80000
C1113       C  0.58353664  0.34324769  0.56372000     1.01100
C1114       C  0.60397270  0.39541936  0.98340730     1.07000
O1115       O  0.58851229  0.36454459  0.58670016    -0.75600
C1116       C  0.48647436  0.37154433  0.54630521     1.05300
Fe1117     Fe  0.82143434  0.23303058  0.93987271     1.65800
Fe1118     Fe  0.87355727  0.20666080  0.88087354     1.73200
Fe1119     Fe  0.84173255  0.16232531  0.94873197     1.54400
O1120       O  0.83292245  0.18111406  0.50467610    -0.79300
O1121       O  0.85704274  0.17304126  0.84765411    -0.77700
O1122       O  0.83918326  0.22848933  0.99413231    -0.81900
O1123       O  0.78669922  0.20677619  0.95799781    -0.76700
O1124       O  0.88584065  0.16177072  0.96116080    -0.78500
O1125       O  0.84681234  0.23588357  0.85248124    -0.81200
C1126       C  0.78068074  0.17974759  0.95919824     0.99500
C1127       C  0.83252269  0.20751308  0.51635738     1.07000
O1128       O  0.84487842  0.20020015  0.92228566    -1.10200
O1129       O  0.89275164  0.24083496  0.91069890    -0.72600
O1130       O  0.85252905  0.26448698  0.92776013    -0.76100
O1131       O  0.79673200  0.16074974  0.94221145    -0.76800
C1132       C  0.87959261  0.26387650  0.92083336     0.98400
O1133       O  0.80441217  0.23998718  0.88461242    -0.74800
O1134       O  0.90442964  0.17938212  0.90497773    -0.80000
C1135       C  0.85463990  0.14662866  0.85809548     1.01100
C1136       C  0.90705884  0.16643821  0.93791427     1.07000
O1137       O  0.84983135  0.13918479  0.89434994    -0.75600
C1138       C  0.82156425  0.24670575  0.85652694     1.05300
Fe1139     Fe  0.67710772  0.23284148  0.56220982     1.65800
Fe1140     Fe  0.62484696  0.20653175  0.62099326     1.73200
Fe1141     Fe  0.65669639  0.16218356  0.55311447     1.54400
O1142       O  0.66549466  0.18106639  0.99723760    -0.79300
O1143       O  0.64115225  0.17280077  0.65417315    -0.77700
O1144       O  0.65939501  0.22847011  0.50789090    -0.81900
O1145       O  0.71177603  0.20658810  0.54399037    -0.76700
O1146       O  0.61258880  0.16164083  0.54063822    -0.78500
O1147       O  0.65167697  0.23561627  0.64956961    -0.81200
C1148       C  0.71778856  0.17956921  0.54270570     0.99500
C1149       C  0.66592462  0.20747729  0.98560077     1.07000
O1150       O  0.65357093  0.20003459  0.57964182    -1.10200
O1151       O  0.60581291  0.24080458  0.59122723    -0.72600
O1152       O  0.64612965  0.26437119  0.57445182    -0.76100
O1153       O  0.70171780  0.16054685  0.55960160    -0.76800
C1154       C  0.61905946  0.26382862  0.58129069     0.98400
O1155       O  0.69411921  0.23959042  0.61751383    -0.74800
O1156       O  0.59391512  0.17942293  0.59667680    -0.80000
C1157       C  0.64361155  0.14640118  0.64369415     1.01100
C1158       C  0.59133082  0.16640407  0.56378478     1.07000
O1159       O  0.64855099  0.13898688  0.60745268    -0.75600
C1160       C  0.67696298  0.24636797  0.64557020     1.05300
Fe1161     Fe  0.01740507  0.07210163  0.93724512     1.65800
Fe1162     Fe  0.04346684  0.12475446  0.99566560     1.73200
Fe1163     Fe  0.08793125  0.09325119  0.92779000     1.54400
O1164       O  0.08994967  0.04830465  0.93437088    -0.79300
O1165       O  0.07038647  0.15583467  0.97138215    -0.77700
O1166       O  0.04394093  0.03756413  0.91935667    -0.81900
O1167       O  0.02151338  0.08933243  0.88262615    -0.76700
O1168       O  0.11111843  0.10151564  0.98214196    -0.78500
O1169       O  0.00914309  0.14350345  0.96573928    -0.81200
C1170       C  0.04269147  0.08353146  0.86027912     0.99500
C1171       C  0.07104805  0.03198939  0.91770164     1.07000
O1172       O  0.05007202  0.09602093  0.95436883    -1.10200
O1173       O  0.01451724  0.09795587  0.52437751    -0.72600
O1174       O  0.01064240  0.05535897  0.99277668    -0.76100
O1175       O  0.06908925  0.08435050  0.87193828    -0.76800
C1176       C  0.00381882  0.07264845  0.52066537     0.98400
O1177       O  0.98572439  0.10305218  0.94904169    -0.74800
O1178       O  0.07725884  0.10861171  0.52888386    -0.80000
C1179       C  0.08321504  0.15857594  0.93839067     1.01100
C1180       C  0.10367389  0.10627559  0.51842609     1.07000
O1181       O  0.08809082  0.13736609  0.91521645    -0.75600
C1182       C  0.98620320  0.13016499  0.95565928     1.05300
Fe1183     Fe  0.01730721  0.92981157  0.81390179     1.65800
Fe1184     Fe  0.04329707  0.87707718  0.75557024     1.73200
Fe1185     Fe  0.08775794  0.90849473  0.82349755     1.54400
O1186       O  0.08989786  0.95343349  0.81690933    -0.79300
O1187       O  0.07008153  0.84591983  0.77994764    -0.77700
O1188       O  0.04390359  0.96426362  0.83189950    -0.81900
O1189       O  0.02128254  0.91253346  0.86850884    -0.76700
O1190       O  0.11098809  0.90019201  0.76921275    -0.78500
O1191       O  0.00888938  0.85843756  0.78544746    -0.81200
C1192       C  0.04244893  0.91828524  0.89089168     0.99500
C1193       C  0.07101762  0.96978859  0.83356654     1.07000
O1194       O  0.04993312  0.90580762  0.79684935    -1.10200
O1195       O  0.01446385  0.90397942  0.72679616    -0.72600
O1196       O  0.01075025  0.94660152  0.75837915    -0.76100
O1197       O  0.06885642  0.91742723  0.87928045    -0.76800
C1198       C  0.00386948  0.92933879  0.73050070     0.98400
O1199       O  0.98553300  0.89896559  0.80197419    -0.74800
O1200       O  0.07717782  0.89309732  0.72241589    -0.80000
C1201       C  0.08283456  0.84316953  0.81298574     1.01100
C1202       C  0.10357804  0.89543645  0.73292543     1.07000
O1203       O  0.08778218  0.86439173  0.83610167    -0.75600
C1204       C  0.98595784  0.87183949  0.79542781     1.05300
Fe1205     Fe  0.17717315  0.26885760  0.93980184     1.65800
Fe1206     Fe  0.12479393  0.29516063  0.88119240     1.73200
Fe1207     Fe  0.15673992  0.33953042  0.94888773     1.54400
O1208       O  0.16557177  0.32068921  0.50479476    -0.79300
O1209       O  0.14115393  0.32878364  0.84786032    -0.77700
O1210       O  0.15964115  0.27324586  0.99422298    -0.81900
O1211       O  0.21190065  0.29512384  0.95785770    -0.76700
O1212       O  0.11263272  0.34013879  0.96143823    -0.78500
O1213       O  0.15149569  0.26595728  0.85263289    -0.81200
C1214       C  0.21785433  0.32215959  0.95916865     0.99500
C1215       C  0.16608190  0.29428523  0.51647402     1.07000
O1216       O  0.15358536  0.30166190  0.92244444    -1.10200
O1217       O  0.10576309  0.26099668  0.91118508    -0.72600
O1218       O  0.14609447  0.23735785  0.92777208    -0.76100
O1219       O  0.20174287  0.34115338  0.94229473    -0.76800
C1220       C  0.11899752  0.23795062  0.92108639     0.98400
O1221       O  0.19404114  0.26203768  0.88440308    -0.74800
O1222       O  0.09392236  0.32240802  0.90541906    -0.80000
C1223       C  0.14364917  0.35519403  0.85827463     1.01100
C1224       C  0.09136286  0.33545280  0.93829548     1.07000
O1225       O  0.14858808  0.36265059  0.89449741    -0.75600
C1226       C  0.17679312  0.25521372  0.85648108     1.05300
Fe1227     Fe  0.32152212  0.26898099  0.56196484     1.65800
Fe1228     Fe  0.37357268  0.29532671  0.62106571     1.73200
Fe1229     Fe  0.34191095  0.33965772  0.55309933     1.54400
O1230       O  0.33313058  0.32089094  0.99716753    -0.79300
O1231       O  0.35700585  0.32894030  0.65423591    -0.77700
O1232       O  0.33930520  0.27350037  0.50769549    -0.81900
O1233       O  0.28682943  0.29525212  0.54382630    -0.76700
O1234       O  0.38604622  0.34009453  0.54072194    -0.78500
O1235       O  0.34678489  0.26609989  0.64941198    -0.81200
C1236       C  0.28081014  0.32227783  0.54258069     0.99500
C1237       C  0.33270220  0.29450045  0.98547206     1.07000
O1238       O  0.34496020  0.30179404  0.57958266    -1.10200
O1239       O  0.39279607  0.26117977  0.59127192    -0.75800
O1240       O  0.35259542  0.23753204  0.57414750    -0.76100
O1241       O  0.29687592  0.34130419  0.55949128    -0.76800
C1242       C  0.37964415  0.23814419  0.58115289     0.98400
O1243       O  0.30442880  0.26203073  0.61720229    -0.74800
O1244       O  0.40450932  0.32258237  0.59702560    -0.80000
C1245       C  0.35474886  0.35535678  0.64376501     1.01100
C1246       C  0.40722577  0.33543610  0.56403294     1.07000
O1247       O  0.35001889  0.36279969  0.60748922    -0.75600
C1248       C  0.32154162  0.25528407  0.64531392     1.05300
Fe1249     Fe  0.01721537  0.57303422  0.56483624     1.65800
Fe1250     Fe  0.04345253  0.62526200  0.50593962     1.73200
Fe1251     Fe  0.08788105  0.59348106  0.57372299     1.54400
O1252       O  0.06908022  0.58469482  0.62967193    -0.79300
O1253       O  0.07711617  0.60891738  0.97264533    -0.77700
O1254       O  0.02167271  0.59079358  0.61911702    -0.81900
O1255       O  0.04352744  0.53836589  0.58301659    -0.76700
O1256       O  0.08840132  0.63760218  0.58615158    -0.78500
O1257       O  0.01429529  0.59844571  0.97749945    -0.81200
C1258       C  0.07056024  0.53237571  0.58424715     0.99500
C1259       C  0.04268009  0.58426349  0.64136593     1.07000
O1260       O  0.05000259  0.59655427  0.54728091    -1.10200
O1261       O  0.00927255  0.64432418  0.53587013    -0.72600
O1262       O  0.98567594  0.60403278  0.55268490    -0.76100
O1263       O  0.08954605  0.54845368  0.56728094    -0.76800
C1264       C  0.98624757  0.63110870  0.54587636     0.98400
O1265       O  0.01032948  0.55600284  0.50954229    -0.74800
O1266       O  0.07063063  0.65619989  0.53007940    -0.80000
C1267       C  0.10353447  0.60653479  0.98307089     1.01100
C1268       C  0.08365459  0.65882856  0.56295381     1.07000
O1269       O  0.11099148  0.60162540  0.51930193    -0.75600
C1270       C  0.00353729  0.57316563  0.98149710     1.05300
Fe1271     Fe  0.01732033  0.42865778  0.68697339     1.65800
Fe1272     Fe  0.04354490  0.37639693  0.74579307     1.73200
Fe1273     Fe  0.08801447  0.40827628  0.67808558     1.54400
O1274       O  0.06924308  0.41710265  0.62215711    -0.79300
O1275       O  0.07722469  0.39268338  0.77909599    -0.77700
O1276       O  0.02186559  0.41085446  0.63274075    -0.81900
O1277       O  0.04360716  0.46334499  0.66883344    -0.76700
O1278       O  0.08857826  0.36415708  0.66559971    -0.78500
O1279       O  0.01444146  0.40323060  0.77429433    -0.81200
C1280       C  0.07062754  0.46937562  0.66762808     0.99500
C1281       C  0.04283973  0.41751462  0.61050528     1.07000
O1282       O  0.05011620  0.40515020  0.70451787    -1.10200
O1283       O  0.00930926  0.35737118  0.71590687    -0.72600
O1284       O  0.98575765  0.39768506  0.69909279    -0.76100
O1285       O  0.08963333  0.45330631  0.68457153    -0.76800
C1286       C  0.98629014  0.37061276  0.70591476     0.98400
O1287       O  0.01040276  0.44567867  0.74225839    -0.74800
O1288       O  0.07068467  0.34546100  0.72155010    -0.80000
C1289       C  0.10363880  0.39519034  0.76869637     1.01100
C1290       C  0.08374535  0.34288376  0.68868838     1.07000
O1291       O  0.11110888  0.40014389  0.73248501    -0.75600
C1292       C  0.00368586  0.42851693  0.77033849     1.05300
Fe1293     Fe  0.98093130  0.92877063  0.56454467     1.65800
Fe1294     Fe  0.95457851  0.87648550  0.50582241     1.73200
Fe1295     Fe  0.91023350  0.90845269  0.57359560     1.54400
O1296       O  0.92906818  0.91730346  0.62947965    -0.79300
O1297       O  0.92090653  0.89285154  0.97258185    -0.77700
O1298       O  0.97646933  0.91114054  0.61889573    -0.81900
O1299       O  0.95470177  0.96351830  0.58263529    -0.76700
O1300       O  0.90964237  0.86433655  0.58614080    -0.78500
O1301       O  0.98370882  0.90323267  0.97724144    -0.81200
C1302       C  0.92768015  0.96954285  0.58391029     0.99500
C1303       C  0.95547289  0.91775701  0.64113123     1.07000
O1304       O  0.94810331  0.90525690  0.54712217    -1.10200
O1305       O  0.98881671  0.85741308  0.53564222    -0.72600
O1306       O  0.01242525  0.89770153  0.55244371    -0.76100
O1307       O  0.90865789  0.95347047  0.56702123    -0.76800
C1308       C  0.01185591  0.87062737  0.54560617     0.98400
O1309       O  0.98777596  0.94570009  0.50920731    -0.74800
O1310       O  0.92740459  0.84559867  0.53013324    -0.80000
C1311       C  0.89450419  0.89537103  0.98302080     1.01100
C1312       C  0.91440797  0.84304316  0.56304873     1.07000
O1313       O  0.88706822  0.90031433  0.51924920    -0.75600
C1314       C  0.99449215  0.92850516  0.98116881     1.05300
Fe1315     Fe  0.98096328  0.07320518  0.68678921     1.65800
Fe1316     Fe  0.95466903  0.12548896  0.74559335     1.73200
Fe1317     Fe  0.91027571  0.09355898  0.67786615     1.54400
O1318       O  0.92909355  0.08476851  0.62192401    -0.79300
O1319       O  0.92101226  0.10917364  0.77890608    -0.77700
O1320       O  0.97650421  0.09087946  0.63245489    -0.81900
O1321       O  0.95472709  0.03849043  0.66865166    -0.76700
O1322       O  0.90965997  0.13767287  0.66539015    -0.78500
O1323       O  0.98383346  0.09870851  0.77410819    -0.81200
C1324       C  0.92770588  0.03247810  0.66739961     0.99500
C1325       C  0.95549408  0.08431600  0.61022533     1.07000
O1326       O  0.94815170  0.09672592  0.70429197    -1.10200
O1327       O  0.98885123  0.14453678  0.71567732    -0.72600
O1328       O  0.01245736  0.10423238  0.69890921    -0.76100
O1329       O  0.90869607  0.04853806  0.68435400    -0.76800
C1330       C  0.01188079  0.13130744  0.70570935     0.98400
O1331       O  0.98782187  0.05624286  0.74211079    -0.74800
O1332       O  0.92749404  0.15639591  0.72135154    -0.80000
C1333       C  0.89460723  0.10662460  0.76849934     1.01100
C1334       C  0.91445090  0.15895451  0.68847944     1.07000
O1335       O  0.88715775  0.10165496  0.73228382    -0.75600
C1336       C  0.99460363  0.07342627  0.77013262     1.05300
Fe1337     Fe  0.82038024  0.73245299  0.56241424     1.65800
Fe1338     Fe  0.87301544  0.70640605  0.62085265     1.73200
Fe1339     Fe  0.84156139  0.66195857  0.55287761     1.54400
O1340       O  0.79661856  0.65990677  0.55946670    -0.79300
O1341       O  0.90415658  0.67961482  0.59641444    -0.77700
O1342       O  0.78590179  0.70590735  0.54439354    -0.81900
O1343       O  0.83772743  0.72840079  0.50784371    -0.76700
O1344       O  0.84983053  0.63870402  0.60714554    -0.78500
O1345       O  0.89172302  0.74086834  0.59111455    -0.81200
C1346       C  0.83186516  0.70725933  0.98546805     0.99500
C1347       C  0.78031952  0.67880529  0.54275797     1.07000
O1348       O  0.84431448  0.69979908  0.57952353    -1.10200
O1349       O  0.84608852  0.73522030  0.64964846    -0.72600
O1350       O  0.80354013  0.73907129  0.61790923    -0.76100
O1351       O  0.83265691  0.68085136  0.99707669    -0.76800
C1352       C  0.82075395  0.74586502  0.64588374     0.98400
O1353       O  0.85123793  0.76419757  0.57435666    -0.74800
O1354       O  0.85696021  0.67250180  0.65394989    -0.80000
C1355       C  0.90688096  0.66679185  0.56341139     1.01100
C1356       C  0.85460393  0.64610330  0.64343238     1.07000
O1357       O  0.88565899  0.66184930  0.54029885    -0.75600
C1358       C  0.87834275  0.76379114  0.58103463     1.05300
Fe1359     Fe  0.67808493  0.73254217  0.93911452     1.65800
Fe1360     Fe  0.62530429  0.70650907  0.88089452     1.73200
Fe1361     Fe  0.65690074  0.66205300  0.94869264     1.54400
O1362       O  0.70182646  0.65999617  0.94193803    -0.79300
O1363       O  0.59422758  0.67967065  0.90533143    -0.77700
O1364       O  0.71262170  0.70598723  0.95694518    -0.81900
O1365       O  0.66095098  0.72851714  0.99380417    -0.76700
O1366       O  0.64858373  0.63884064  0.89441597    -0.78500
O1367       O  0.60663796  0.74090174  0.91080981    -0.81200
C1368       C  0.66672251  0.70732925  0.51614582     0.99500
C1369       C  0.71817414  0.67887612  0.95858077     1.07000
O1370       O  0.65409541  0.69989782  0.92210834    -1.10200
O1371       O  0.65210785  0.73537849  0.85206444    -0.72600
O1372       O  0.69475794  0.73917195  0.88353821    -0.76100
O1373       O  0.66587517  0.68093073  0.50448882    -0.76800
C1374       C  0.67744604  0.74601618  0.85570381     0.98400
O1375       O  0.64714924  0.76426953  0.92735400    -0.74800
O1376       O  0.64135339  0.67266887  0.84768067    -0.80000
C1377       C  0.59154244  0.66687699  0.93835180     1.01100
C1378       C  0.64377220  0.64626826  0.85815244     1.07000
O1379       O  0.61280459  0.66193157  0.96140251    -0.75600
C1380       C  0.62002203  0.76383424  0.92081943     1.05300
Fe1381     Fe  0.48069659  0.92978308  0.68746033     1.65800
Fe1382     Fe  0.45468255  0.87688681  0.74547329     1.73200
Fe1383     Fe  0.41017825  0.90865277  0.67783990     1.54400
O1384       O  0.40816624  0.95357568  0.68466512    -0.79300
O1385       O  0.42785379  0.84586003  0.72091306    -0.77700
O1386       O  0.45416497  0.96435671  0.66969387    -0.81900
O1387       O  0.47662839  0.91269352  0.63276342    -0.76700
O1388       O  0.38699157  0.90029249  0.73213340    -0.78500
O1389       O  0.48906344  0.85830131  0.71546181    -0.81200
C1390       C  0.45545535  0.91851259  0.61042413     0.99500
C1391       C  0.42705804  0.96991951  0.66803377     1.07000
O1392       O  0.44804064  0.90577820  0.70439731    -1.10200
O1393       O  0.48356105  0.90363949  0.77441767    -0.72600
O1394       O  0.48736525  0.94635703  0.74309886    -0.76100
O1395       O  0.42904838  0.91767161  0.62205141    -0.76800
C1396       C  0.49420222  0.92898809  0.77088365     0.98400
O1397       O  0.51243394  0.89885016  0.69912818    -0.74800
O1398       O  0.42083838  0.89282444  0.77878320    -0.80000
C1399       C  0.41494946  0.84326159  0.68796285     1.01100
C1400       C  0.39443616  0.89535351  0.76836168     1.07000
O1401       O  0.40996496  0.86457532  0.66501648    -0.75600
C1402       C  0.51200295  0.87171412  0.70557041     1.05300
Fe1403     Fe  0.48078318  0.07220101  0.56452086     1.65800
Fe1404     Fe  0.45481640  0.12497129  0.50621007     1.73200
Fe1405     Fe  0.41029654  0.09343224  0.57400907     1.54400
O1406       O  0.40820198  0.04850150  0.56729691    -0.79300
O1407       O  0.42801765  0.15607641  0.53065438    -0.77700
O1408       O  0.45419094  0.03769368  0.58233188    -0.81900
O1409       O  0.47668553  0.08938719  0.61917978    -0.76700
O1410       O  0.38711579  0.10178798  0.51972141    -0.78500
O1411       O  0.48921348  0.14360188  0.53610797    -0.81200
C1412       C  0.45549021  0.08358040  0.64149563     0.99500
C1413       C  0.42707956  0.03214458  0.58394618     1.07000
O1414       O  0.44815955  0.09618970  0.54743276    -1.10200
O1415       O  0.48367521  0.09812208  0.97739816    -0.72600
O1416       O  0.48749007  0.05550216  0.50896539    -0.76100
O1417       O  0.42910362  0.08443048  0.62981759    -0.76800
C1418       C  0.49433079  0.07279011  0.98109316     0.98400
O1419       O  0.51253994  0.10308933  0.55276596    -0.74800
O1420       O  0.42095270  0.10899450  0.97298172    -0.80000
C1421       C  0.41522552  0.15876917  0.56367732     1.01100
C1422       C  0.39454655  0.10660135  0.98345679     1.07000
O1423       O  0.41024278  0.13751494  0.58672143    -0.75600
C1424       C  0.51213232  0.13020167  0.54612998     1.05300
Fe1425     Fe  0.32026127  0.23261147  0.81263289     1.65800
Fe1426     Fe  0.37305770  0.20658425  0.87086948     1.73200
Fe1427     Fe  0.34148327  0.16211884  0.80308708     1.54400
O1428       O  0.29655064  0.16005402  0.80980153    -0.79300
O1429       O  0.40412461  0.17969077  0.84650416    -0.77700
O1430       O  0.28570830  0.20604505  0.79482761    -0.81900
O1431       O  0.33734076  0.22856796  0.75791075    -0.76700
O1432       O  0.34981977  0.13893738  0.85739958    -0.78500
O1433       O  0.39173701  0.24091955  0.84089177    -0.81200
C1434       C  0.33160604  0.20735497  0.73559234     0.99500
C1435       C  0.28018754  0.17892527  0.79315264     1.07000
O1436       O  0.34426426  0.19997076  0.82965040    -1.10200
O1437       O  0.34629403  0.23551623  0.89966170    -0.72600
O1438       O  0.30362579  0.23928927  0.86823625    -0.76100
O1439       O  0.33250186  0.18096506  0.74727570    -0.76800
C1440       C  0.32095924  0.24616618  0.89603283     0.98400
O1441       O  0.35123305  0.26432005  0.82434342    -0.74800
O1442       O  0.35698019  0.17278994  0.90412491    -0.80000
C1443       C  0.40683134  0.16692038  0.81346970     1.01100
C1444       C  0.35461916  0.14638056  0.89366551     1.07000
O1445       O  0.38558299  0.16200883  0.79038482    -0.75600
C1446       C  0.37836347  0.26386024  0.83087878     1.05300
Fe1447     Fe  0.17785994  0.23235512  0.68942427     1.65800
Fe1448     Fe  0.12522715  0.20634188  0.63096142     1.73200
Fe1449     Fe  0.15662774  0.16187313  0.69893543     1.54400
O1450       O  0.20159710  0.15975738  0.69245052    -0.79300
O1451       O  0.09410516  0.17949267  0.65525423    -0.77700
O1452       O  0.21235713  0.20579141  0.70733529    -0.81900
O1453       O  0.16058671  0.22829273  0.74403557    -0.76700
O1454       O  0.14832310  0.13865772  0.64460206    -0.78500
O1455       O  0.10648464  0.24072123  0.66081581    -0.81200
C1456       C  0.16640556  0.20712974  0.76639218     0.99500
C1457       C  0.21793102  0.17868756  0.70904780     1.07000
O1458       O  0.15392587  0.19971409  0.67229814    -1.10200
O1459       O  0.15207813  0.23524847  0.60224739    -0.72600
O1460       O  0.19464989  0.23903909  0.63391247    -0.76100
O1461       O  0.16554716  0.18072746  0.75476250    -0.76800
C1462       C  0.17739693  0.24591134  0.60601769     0.98400
O1463       O  0.14695497  0.26407489  0.67757606    -0.74800
O1464       O  0.14134930  0.17249734  0.59781052    -0.80000
C1465       C  0.09132479  0.16677052  0.68830984     1.01100
C1466       C  0.14359281  0.14608434  0.60830593     1.07000
O1467       O  0.11251642  0.16185787  0.71148670    -0.75600
C1468       C  0.11984918  0.26364627  0.67090174     1.05300
Fe1469     Fe  0.51726235  0.92883056  0.93727887     1.65800
Fe1470     Fe  0.54359669  0.87652044  0.99594706     1.73200
Fe1471     Fe  0.58791647  0.90841431  0.92808194     1.54400
O1472       O  0.56897481  0.91715755  0.87220398    -0.79300
O1473       O  0.57730715  0.89283413  0.52914380    -0.77700
O1474       O  0.52155714  0.91116523  0.88293170    -0.81900
O1475       O  0.54348258  0.96350422  0.91902021    -0.76700
O1476       O  0.58854301  0.86429315  0.91563499    -0.78500
O1477       O  0.51447261  0.90332483  0.52454582    -0.81200
C1478       C  0.57050114  0.96949866  0.91768087     0.99500
C1479       C  0.54255010  0.91761125  0.86060001     1.07000
O1480       O  0.55007910  0.90526419  0.95462236    -1.10200
O1481       O  0.50935230  0.85749786  0.96612239    -0.72600
O1482       O  0.48574617  0.89783833  0.94953190    -0.76100
O1483       O  0.58952724  0.95342968  0.93455884    -0.76800
C1484       C  0.48631378  0.87075101  0.95624915     0.98400
O1485       O  0.51060121  0.94581333  0.99260693    -0.74800
O1486       O  0.57073458  0.84559131  0.97162950    -0.80000
C1487       C  0.60369858  0.89539886  0.51866766     1.01100
C1488       C  0.58377808  0.84302103  0.93874949     1.07000
O1489       O  0.61111112  0.90035332  0.98243095    -0.75600
C1490       C  0.50374976  0.92862977  0.52058336     1.05300
Fe1491     Fe  0.51711916  0.07320983  0.81501352     1.65800
Fe1492     Fe  0.54349014  0.12535547  0.75605934     1.73200
Fe1493     Fe  0.58782653  0.09349353  0.82387471     1.54400
O1494       O  0.56903078  0.08469537  0.87980722    -0.79300
O1495       O  0.57712746  0.10887359  0.72282459    -0.77700
O1496       O  0.52163100  0.09090714  0.86932429    -0.81900
O1497       O  0.54335847  0.03847353  0.83310064    -0.76700
O1498       O  0.58841273  0.13760615  0.83635898    -0.78500
O1499       O  0.51429091  0.09860117  0.72761316    -0.81200
C1500       C  0.57038042  0.03243237  0.83426277     0.99500
C1501       C  0.54264079  0.08430781  0.89153241     1.07000
O1502       O  0.54994743  0.09666657  0.79745348    -1.10200
O1503       O  0.50929369  0.14452657  0.78586535    -0.72600
O1504       O  0.48566360  0.10429706  0.80290495    -0.76100
O1505       O  0.58938354  0.04848728  0.81730602    -0.76800
C1506       C  0.48625734  0.13135392  0.79595667     0.98400
O1507       O  0.51019385  0.05620456  0.75973596    -0.74800
O1508       O  0.57073608  0.15623615  0.78024493    -0.80000
C1509       C  0.60353827  0.10643720  0.73325230     1.01100
C1510       C  0.58372086  0.15884517  0.81315820     1.07000
O1511       O  0.61097932  0.10159531  0.76949799    -0.75600
C1512       C  0.50346431  0.07335615  0.73166154     1.05300
Fe1513     Fe  0.82023609  0.26943465  0.68905806     1.65800
Fe1514     Fe  0.87299993  0.29552333  0.63083210     1.73200
Fe1515     Fe  0.84148955  0.33989740  0.69881379     1.54400
O1516       O  0.79655841  0.34198434  0.69213039    -0.79300
O1517       O  0.90410695  0.32233781  0.65529822    -0.77700
O1518       O  0.78572688  0.29597262  0.70697726    -0.81900
O1519       O  0.83734519  0.27337072  0.74377850    -0.76700
O1520       O  0.84981203  0.36317925  0.64460837    -0.78500
O1521       O  0.89167423  0.26108963  0.66062112    -0.81200
C1522       C  0.83164877  0.29456490  0.76616100     0.99500
C1523       C  0.78020643  0.32308318  0.70873040     1.07000
O1524       O  0.84424889  0.30208494  0.67212664    -1.10200
O1525       O  0.84617963  0.26667214  0.60195605    -0.72600
O1526       O  0.80354500  0.26289990  0.63347727    -0.76100
O1527       O  0.83253631  0.32096686  0.75454714    -0.76800
C1528       C  0.82084201  0.25603257  0.60562917     0.98400
O1529       O  0.85115966  0.23772020  0.67718239    -0.74800
O1530       O  0.85691552  0.32940823  0.59775480    -0.80000
C1531       C  0.90682986  0.33508492  0.68835337     1.01100
C1532       C  0.85457525  0.35579794  0.60831501     1.07000
O1533       O  0.88559086  0.33997353  0.71147698    -0.75600
C1534       C  0.87828258  0.23815448  0.67060484     1.05300
Fe1535     Fe  0.67806963  0.26929031  0.81254047     1.65800
Fe1536     Fe  0.62530816  0.29534008  0.87080929     1.73200
Fe1537     Fe  0.65694471  0.33980946  0.80303828     1.54400
O1538       O  0.70185940  0.34181542  0.80980437    -0.79300
O1539       O  0.59425525  0.32221200  0.84638077    -0.77700
O1540       O  0.71262251  0.29583194  0.79469488    -0.81900
O1541       O  0.66088284  0.27338964  0.75790340    -0.76700
O1542       O  0.64862411  0.36300357  0.85733390    -0.78500
O1543       O  0.60663363  0.26096561  0.84088113    -0.81200
C1544       C  0.66675476  0.29454868  0.73556825     0.99500
C1545       C  0.71817966  0.32294307  0.79308232     1.07000
O1546       O  0.65411215  0.30195192  0.82960310    -1.10200
O1547       O  0.65210329  0.26644026  0.89962068    -0.72600
O1548       O  0.69474583  0.26258497  0.86810323    -0.76100
O1549       O  0.66593748  0.32095238  0.74721345    -0.76800
C1550       C  0.67743435  0.25577276  0.89596646     0.98400
O1551       O  0.64713082  0.23757597  0.82429101    -0.74800
O1552       O  0.64134496  0.32917076  0.90405173    -0.80000
C1553       C  0.59159266  0.33505839  0.81339461     1.01100
C1554       C  0.64378398  0.35557393  0.89359158     1.07000
O1555       O  0.61285815  0.33999004  0.79033833    -0.75600
C1556       C  0.62000883  0.23802375  0.83086649     1.05300
Fe1557     Fe  0.48126427  0.57321464  0.93679328     1.65800
Fe1558     Fe  0.45492790  0.62529251  0.99585767     1.73200
Fe1559     Fe  0.41059625  0.59362371  0.92789833     1.54400
O1560       O  0.42937412  0.58482663  0.87197831    -0.79300
O1561       O  0.42130505  0.60872749  0.52901664    -0.77700
O1562       O  0.47675792  0.59100203  0.88254408    -0.81900
O1563       O  0.45497434  0.53853262  0.91865504    -0.76700
O1564       O  0.41016200  0.63774052  0.91550548    -0.78500
O1565       O  0.48415691  0.59851543  0.52420923    -0.81200
C1566       C  0.42794539  0.53252493  0.91744786     0.99500
C1567       C  0.45576902  0.58441764  0.86030104     1.07000
O1568       O  0.44845694  0.59667246  0.95438922    -1.10200
O1569       O  0.48909660  0.64450229  0.96605786    -0.72600
O1570       O  0.51272821  0.60427429  0.94896054    -0.76100
O1571       O  0.40893193  0.54861255  0.93434795    -0.76800
C1572       C  0.51213114  0.63133036  0.95593147     0.98400
O1573       O  0.48820261  0.55613588  0.99203755    -0.74800
O1574       O  0.42765755  0.65620814  0.97181800    -0.80000
C1575       C  0.39489040  0.60644657  0.51854149     1.01100
C1576       C  0.41479680  0.65891419  0.93883288     1.07000
O1577       O  0.38745096  0.60173865  0.98226425    -0.75600
C1578       C  0.49496193  0.57326263  0.52013046     1.05300
Fe1579     Fe  0.48124663  0.42879548  0.81481183     1.65800
Fe1580     Fe  0.45495383  0.37651310  0.75604504     1.73200
Fe1581     Fe  0.41059366  0.40834546  0.82388722     1.54400
O1582       O  0.42944844  0.41713224  0.87978045    -0.79300
O1583       O  0.42127383  0.39288744  0.72282300    -0.77700
O1584       O  0.47688452  0.41116687  0.86917761    -0.81900
O1585       O  0.45496879  0.46347454  0.83295969    -0.76700
O1586       O  0.41004413  0.36423300  0.83635858    -0.78500
O1587       O  0.48410898  0.40328980  0.72751349    -0.81200
C1588       C  0.42794028  0.46945737  0.83422852     0.99500
C1589       C  0.45585040  0.41759464  0.89145396     1.07000
O1590       O  0.44845371  0.40523146  0.79739855    -1.10200
O1591       O  0.48917253  0.35745751  0.78589991    -0.72600
O1592       O  0.51276523  0.39777150  0.80265333    -0.76100
O1593       O  0.40893924  0.45335375  0.81736336    -0.76800
C1594       C  0.51220058  0.37069150  0.79586092     0.98400
O1595       O  0.48801877  0.44576265  0.75948030    -0.74800
O1596       O  0.42776798  0.34559723  0.78027036    -0.80000
C1597       C  0.39486719  0.39533436  0.73328646     1.01100
C1598       C  0.41475199  0.34299237  0.81316375     1.07000
O1599       O  0.38743472  0.40022052  0.76953211    -0.75600
C1600       C  0.49484666  0.42858081  0.73148021     1.05300
C1601       C  0.41950656  0.50961999  0.88966123    -0.10900
C1602       C  0.41950037  0.49235540  0.86203231    -0.12500
C1603       C  0.56314419  0.34519916  0.80301106    -0.10900
C1604       C  0.53912014  0.35516068  0.79874010    -0.12500
C1605       C  0.74072208  0.33158088  0.76491032    -0.10900
C1606       C  0.75764958  0.33164693  0.73692214    -0.12500
C1607       C  0.59429958  0.18718155  0.82333177    -0.10900
C1608       C  0.60452602  0.21108913  0.82767390    -0.12500
C1609       C  0.57888941  0.99234405  0.88977377    -0.10900
C1610       C  0.57883661  0.00955829  0.86208860    -0.12500
C1611       C  0.45935050  0.14691835  0.79880729    -0.10900
C1612       C  0.43530726  0.15684584  0.80306882    -0.12500
C1613       C  0.24057795  0.17017119  0.73714764    -0.10900
C1614       C  0.25758684  0.17028163  0.76505019    -0.12500
C1615       C  0.40414097  0.31466559  0.82331606    -0.10900
C1616       C  0.39386775  0.29077853  0.82765523    -0.12500
C1617       C  0.37294609  0.11289690  0.95263382    -0.10900
C1618       C  0.36097398  0.12480643  0.92449953    -0.12500
C1619       C  0.51788120  0.06664302  0.95511209    -0.10900
C1620       C  0.53468015  0.07296170  0.92925272    -0.12500
C1621       C  0.47992212  0.06708513  0.70576692    -0.10900
C1622       C  0.46319340  0.07294555  0.67965592    -0.12500
C1623       C  0.41846635  0.00952725  0.61202231    -0.10900
C1624       C  0.41846636  0.99253091  0.63993329    -0.12500
C1625       C  0.51771855  0.93507911  0.79694761    -0.10900
C1626       C  0.53452748  0.92881982  0.82282449    -0.12500
C1627       C  0.48011713  0.93492414  0.54633052    -0.10900
C1628       C  0.46323548  0.92912558  0.57228749    -0.12500
C1629       C  0.56307159  0.65681440  0.94878045    -0.10900
C1630       C  0.53903252  0.64689230  0.95306833    -0.12500
C1631       C  0.60454227  0.79077238  0.92407772    -0.10900
C1632       C  0.59433026  0.81468294  0.92849937    -0.12500
C1633       C  0.75774469  0.67022773  0.51460762    -0.10900
C1634       C  0.74077458  0.67025893  0.98667274    -0.12500
C1635       C  0.90393104  0.18729255  0.67821057    -0.10900
C1636       C  0.89374820  0.21121158  0.67380065    -0.12500
C1637       C  0.03879091  0.14683117  0.70285432    -0.10900
C1638       C  0.06283343  0.15674048  0.69862821    -0.12500
C1639       C  0.90392716  0.81469145  0.57336953    -0.10900
C1640       C  0.89378950  0.79075209  0.57781962    -0.12500
C1641       C  0.91927204  0.99241584  0.61179433    -0.10900
C1642       C  0.91928090  0.00962897  0.63949573    -0.12500
C1643       C  0.09423256  0.31452832  0.67844052    -0.10900
C1644       C  0.10438495  0.29059153  0.67407237    -0.12500
C1645       C  0.95934887  0.35510444  0.70302158    -0.10900
C1646       C  0.93530864  0.34517128  0.69873695    -0.12500
C1647       C  0.07905311  0.49226918  0.63978467    -0.10900
C1648       C  0.07902518  0.50951212  0.61211674    -0.12500
C1649       C  0.93534092  0.65666283  0.55307159    -0.10900
C1650       C  0.95934742  0.64666343  0.54878889    -0.12500
C1651       C  0.36120017  0.37694640  0.67453765    -0.10900
C1652       C  0.37325020  0.38895320  0.70252729    -0.12500
C1653       C  0.32127546  0.28654013  0.94780143    -0.10900
C1654       C  0.31487033  0.26974667  0.92198007    -0.12500
C1655       C  0.32103733  0.21504136  0.69738251    -0.10900
C1656       C  0.31522432  0.23175220  0.67122201    -0.12500
C1657       C  0.39522889  0.21126205  0.57834742    -0.10900
C1658       C  0.40517743  0.18723532  0.57409985    -0.12500
C1659       C  0.24070626  0.33062179  0.98704090    -0.10900
C1660       C  0.25793023  0.33067927  0.51472108    -0.12500
C1661       C  0.13725530  0.37679132  0.82749206    -0.10900
C1662       C  0.12523007  0.38880793  0.79949033    -0.12500
C1663       C  0.18356368  0.26950429  0.58011471    -0.10900
C1664       C  0.17731614  0.28633855  0.55426330    -0.12500
C1665       C  0.18301178  0.23164952  0.83057518    -0.10900
C1666       C  0.17709011  0.21489090  0.80451517    -0.12500
C1667       C  0.98030478  0.93552950  0.70457852    -0.10900
C1668       C  0.96346450  0.92918964  0.67878732    -0.12500
C1669       C  0.01798191  0.93476145  0.95517938    -0.10900
C1670       C  0.03469648  0.92889035  0.92904968    -0.12500
C1671       C  0.12524917  0.11259493  0.54929679    -0.10900
C1672       C  0.13719860  0.12450619  0.57746213    -0.12500
C1673       C  0.10344151  0.21104359  0.92397098    -0.10900
C1674       C  0.09341827  0.18703571  0.92815471    -0.12500
C1675       C  0.07963323  0.00937693  0.88959405    -0.10900
C1676       C  0.07962614  0.99238434  0.86167731    -0.12500
C1677       C  0.96346448  0.07292771  0.57251517    -0.10900
C1678       C  0.98025242  0.06655026  0.54665357    -0.12500
C1679       C  0.01815756  0.06714238  0.79602113    -0.10900
C1680       C  0.03493819  0.07295233  0.82209838    -0.12500
C1681       C  0.53908398  0.14564806  0.54926377    -0.10900
C1682       C  0.56299660  0.15585739  0.55358065    -0.12500
C1683       C  0.68355704  0.23225227  0.92199676    -0.10900
C1684       C  0.67723842  0.21547156  0.94787499    -0.12500
C1685       C  0.68326214  0.26993602  0.67142626    -0.10900
C1686       C  0.67742375  0.28676145  0.69744523    -0.12500
C1687       C  0.63718935  0.12478042  0.67444158    -0.10900
C1688       C  0.62514619  0.11278480  0.70245258    -0.12500
C1689       C  0.95929958  0.14567603  0.95243929    -0.10900
C1690       C  0.93539501  0.15588918  0.94807602    -0.12500
C1691       C  0.86099855  0.12502078  0.82730658    -0.10900
C1692       C  0.87300333  0.11298979  0.79929253    -0.12500
C1693       C  0.81472023  0.23242543  0.57973797    -0.10900
C1694       C  0.82107694  0.21553683  0.55400041    -0.12500
C1695       C  0.81527774  0.27020225  0.83056868    -0.10900
C1696       C  0.82111233  0.28686627  0.80437303    -0.12500
C1697       C  0.74065170  0.17118249  0.51480975    -0.10900
C1698       C  0.75785183  0.17127287  0.98709872    -0.12500
C1699       C  0.62555820  0.38912573  0.95255780    -0.10900
C1700       C  0.63749098  0.37717512  0.92441903    -0.12500
C1701       C  0.46379049  0.42878954  0.92926053    -0.10900
C1702       C  0.48057403  0.43505274  0.95515622    -0.12500
C1703       C  0.53525438  0.42902616  0.67962210    -0.10900
C1704       C  0.51843340  0.43486736  0.70564598    -0.12500
C1705       C  0.59364534  0.31480538  0.57417637    -0.10900
C1706       C  0.60356048  0.29076552  0.57846397    -0.12500
C1707       C  0.43561150  0.34589813  0.55388840    -0.10900
C1708       C  0.45954628  0.35605752  0.54953272    -0.12500
C1709       C  0.62553596  0.61277103  0.79917320    -0.10900
C1710       C  0.63748052  0.62467772  0.82732382    -0.12500
C1711       C  0.48060033  0.56673544  0.79681455    -0.10900
C1712       C  0.46375721  0.57305837  0.82261151    -0.12500
C1713       C  0.51849494  0.56695100  0.54603689    -0.10900
C1714       C  0.53519866  0.57278800  0.57219264    -0.12500
C1715       C  0.57988427  0.49245897  0.61200346    -0.10900
C1716       C  0.57991684  0.50944327  0.63992826    -0.12500
C1717       C  0.86090902  0.62448696  0.67424465    -0.10900
C1718       C  0.87283041  0.61253717  0.70239370    -0.12500
C1719       C  0.03470040  0.57294445  0.67909986    -0.10900
C1720       C  0.01787796  0.56661308  0.70493143    -0.12500
C1721       C  0.96323216  0.57273386  0.92949406    -0.10900
C1722       C  0.97999004  0.56687619  0.95558944    -0.12500
C1723       C  0.87291052  0.38933228  0.54945133    -0.10900
C1724       C  0.86091714  0.37742113  0.57755871    -0.12500
C1725       C  0.01788183  0.43536654  0.54722891    -0.10900
C1726       C  0.03480461  0.42899405  0.57290305    -0.12500
C1727       C  0.96358763  0.42901020  0.82261338    -0.10900
C1728       C  0.98024486  0.43483455  0.79639430    -0.12500
C1729       C  0.90516083  0.31478590  0.92811786    -0.10900
C1730       C  0.89518744  0.29076679  0.92377754    -0.12500
C1731       C  0.91863218  0.49242415  0.89001217    -0.10900
C1732       C  0.91859585  0.50934089  0.86201554    -0.12500
C1733       C  0.03917407  0.35639264  0.95293512    -0.10900
C1734       C  0.06305376  0.34610830  0.94850455    -0.12500
C1735       C  0.03880609  0.64564206  0.79917583    -0.10900
C1736       C  0.06272351  0.65582223  0.80352393    -0.12500
C1737       C  0.12512421  0.61302523  0.95229689    -0.10900
C1738       C  0.13713289  0.62508917  0.92430942    -0.12500
C1739       C  0.09287413  0.81467980  0.82335411    -0.10900
C1740       C  0.10282770  0.79065110  0.82762277    -0.12500
C1741       C  0.37328384  0.61283788  0.54931290    -0.10900
C1742       C  0.36122576  0.62485186  0.57729237    -0.12500
C1743       C  0.45942649  0.64571771  0.70239432    -0.10900
C1744       C  0.43551562  0.65593610  0.69799548    -0.12500
C1745       C  0.24037935  0.67125098  0.76439433    -0.10900
C1746       C  0.25768158  0.67117760  0.73679713    -0.12500
C1747       C  0.39482750  0.79080520  0.67325518    -0.10900
C1748       C  0.40479309  0.81482950  0.67751083    -0.12500
C1749       C  0.03878635  0.85508464  0.54842386    -0.10900
C1750       C  0.06282622  0.84512598  0.55262645    -0.12500
C1751       C  0.12518495  0.88912343  0.70210919    -0.10900
C1752       C  0.13713863  0.87718888  0.67397335    -0.12500
C1753       C  0.18325989  0.73217775  0.67157216    -0.10900
C1754       C  0.17688806  0.71530695  0.69732305    -0.12500
C1755       C  0.17712340  0.78690579  0.94689548    -0.10900
C1756       C  0.18290843  0.77025997  0.92064722    -0.12500
C1757       C  0.09421866  0.68717285  0.57307597    -0.10900
C1758       C  0.10443388  0.71108683  0.57735571    -0.12500
C1759       C  0.45939238  0.85523580  0.95336301    -0.10900
C1760       C  0.43536914  0.84529025  0.94904854    -0.12500
C1761       C  0.36095487  0.87713481  0.82738895    -0.10900
C1762       C  0.37285215  0.88906607  0.79921144    -0.12500
C1763       C  0.31517151  0.73220442  0.82995732    -0.10900
C1764       C  0.32141361  0.71543712  0.80402438    -0.12500
C1765       C  0.31512184  0.77002589  0.58040707    -0.10900
C1766       C  0.32101798  0.78686052  0.55443111    -0.12500
C1767       C  0.24065166  0.83157215  0.51475510    -0.10900
C1768       C  0.25767538  0.83153474  0.98686985    -0.12500
C1769       C  0.39409717  0.71119759  0.92441003    -0.10900
C1770       C  0.40429116  0.68727847  0.92872324    -0.12500
C1771       C  0.56286116  0.84603934  0.69806084    -0.10900
C1772       C  0.53894855  0.85625612  0.70238125    -0.12500
C1773       C  0.67715750  0.78637389  0.80393440    -0.10900
C1774       C  0.68355930  0.76956759  0.82973651    -0.12500
C1775       C  0.68310024  0.73179191  0.58047241    -0.10900
C1776       C  0.67729028  0.71505921  0.55433729    -0.12500
C1777       C  0.63733416  0.87704192  0.57742294    -0.10900
C1778       C  0.62533036  0.88906783  0.54941760    -0.12500
C1779       C  0.60316711  0.71121881  0.67335478    -0.10900
C1780       C  0.59326702  0.68717480  0.67763179    -0.12500
C1781       C  0.93514247  0.84610402  0.80306838    -0.10900
C1782       C  0.95902261  0.85637084  0.79865078    -0.12500
C1783       C  0.87289626  0.88899976  0.95224890    -0.10900
C1784       C  0.86090984  0.87696432  0.92423328    -0.12500
C1785       C  0.82079318  0.78621422  0.69773145    -0.10900
C1786       C  0.81452699  0.76938029  0.67189075    -0.12500
C1787       C  0.81525023  0.73182812  0.92133872    -0.10900
C1788       C  0.82117260  0.71505401  0.94737213    -0.12500
C1789       C  0.74039445  0.83061962  0.73709080    -0.10900
C1790       C  0.75757218  0.83060427  0.76481123    -0.12500
C1791       C  0.89475523  0.71098957  0.82800570    -0.10900
C1792       C  0.90470812  0.68695341  0.82374683    -0.12500
loop_ 
_geom_bond_atom_site_label_1 
_geom_bond_atom_site_label_2 
_geom_bond_distance 
_geom_bond_site_symmetry_2 
_ccdc_geom_bond_type 
Fe1          O17   2.045       .  S
Fe1           O7   2.091       .  S
Fe1          O14   2.073       .  S
Fe1           O6   2.014       .  S
Fe1          O12   1.947       .  S
Fe2           O5   2.053       .  S
Fe2           O9   2.058       .  S
Fe2          O13   2.063       .  S
Fe2          O18   2.061       .  S
Fe2          O12   1.943       .  S
Fe3          O21   2.152       .  S
Fe3           O8   2.070       .  S
Fe3          O15   2.081       .  S
Fe3           O4   2.114       .  S
Fe3          O12   1.961       .  S
O4           C11   1.276       .  A
O5           C19   1.269       .  A
O6           C11   1.259       .  A
O7           C10   1.273       .  A
O8           C20   1.269       .  A
O9           C22   1.270       .  A
C10          O15   1.278       .  A
C10         C894   1.461       .  S
C11         C889   1.422       .  S
O13          C16   1.266       .  A
O14          C16   1.266       .  A
C16         C895   1.432       .  S
O17          C22   1.270       .  A
O18          C20   1.265       .  A
C19          O21   1.288       .  A
C19         C888   1.466       .  S
C20         C885   1.432       .  S
C22         C891   1.420       .  S
Fe23         O39   2.046       .  S
Fe23         O29   2.091       .  S
Fe23         O36   2.073       .  S
Fe23         O28   2.014       .  S
Fe23         O34   1.946       .  S
Fe24         O27   2.053       .  S
Fe24         O31   2.058       .  S
Fe24         O35   2.062       .  S
Fe24         O40   2.061       .  S
Fe24         O34   1.942       .  S
Fe25         O43   2.151       .  S
Fe25         O30   2.070       .  S
Fe25         O37   2.081       .  S
Fe25         O26   2.112       .  S
Fe25         O34   1.961       .  S
O26          C33   1.275       .  A
O27          C41   1.269       .  A
O28          C33   1.259       .  A
O29          C32   1.273       .  A
O30          C42   1.269       .  A
O31          C44   1.270       .  A
C32          O37   1.278       .  A
C32         C893   1.461       .  S
C33         C877   1.422       .  S
O35          C38   1.266       .  A
O36          C38   1.266       .  A
C38         C883   1.431       .  S
O39          C44   1.270       .  A
O40          C42   1.266       .  A
C41          O43   1.288       .  A
C41         C881   1.465       .  S
C42         C875   1.431       .  S
C44         C879   1.420       .  S
Fe45         O61   2.074       .  S
Fe45         O51   2.013       .  S
Fe45         O58   2.047       .  S
Fe45         O50   2.091       .  S
Fe45         O56   1.948       .  S
Fe46         O49   2.059       .  S
Fe46         O53   2.061       .  S
Fe46         O57   2.055       .  S
Fe46         O62   2.053       .  S
Fe46         O56   1.943       .  S
Fe47         O65   2.071       .  S
Fe47         O52   2.152       .  S
Fe47         O48   2.079       .  S
Fe47        O955   2.112       .  S
Fe47         O56   1.961       .  S
O48          C55   1.278       .  A
O49          C63   1.265       .  A
O50          C55   1.273       .  A
O51         C950   1.259       .  A
O52          C64   1.289       .  A
O53          C66   1.266       .  A
C54          O59   1.276       .  A
C54         O947   1.259   1_554  A
C54         C870   1.421       .  S
C55         C872   1.461       .  S
O57          C60   1.269       .  A
O58          C60   1.270       .  A
O59        Fe943   2.112   1_554  S
C60         C867   1.420       .  S
O61          C66   1.266       .  A
O62          C64   1.269       .  A
C63          O65   1.269       .  A
C63         C864   1.431       .  S
C64         C865   1.466       .  S
C66         C873   1.431       .  S
Fe67         O83   2.075       .  S
Fe67         O73   2.013       .  S
Fe67         O80   2.047       .  S
Fe67         O72   2.090       .  S
Fe67         O78   1.949       .  S
Fe68         O71   2.059       .  S
Fe68         O75   2.061       .  S
Fe68         O79   2.055       .  S
Fe68         O84   2.053       .  S
Fe68         O78   1.943       .  S
Fe69         O87   2.072       .  S
Fe69         O74   2.152       .  S
Fe69         O70   2.080       .  S
Fe69        O977   2.111   1_554  S
Fe69         O78   1.961       .  S
O70          C77   1.278       .  A
O71          C85   1.265       .  A
O72          C77   1.273       .  A
O73         C972   1.260   1_554  A
O74          C86   1.288       .  A
O75          C88   1.266       .  A
C76          O81   1.276       .  A
C76         O969   1.260       .  A
C76         C859   1.421       .  S
C77         C871   1.460       .  S
O79          C82   1.269       .  A
O80          C82   1.270       .  A
O81        Fe965   2.111       .  S
C82         C857   1.421       .  S
O83          C88   1.266       .  A
O84          C86   1.269       .  A
C85          O87   1.269       .  A
C85         C854   1.432       .  S
C86         C856   1.466       .  S
C88         C862   1.432       .  S
Fe89        O105   2.045       .  S
Fe89         O95   2.091       .  S
Fe89        O102   2.073       .  S
Fe89         O94   2.014       .  S
Fe89        O100   1.947       .  S
Fe90         O93   2.053       .  S
Fe90         O97   2.058       .  S
Fe90        O101   2.062       .  S
Fe90        O106   2.061       .  S
Fe90        O100   1.943       .  S
Fe91        O109   2.152       .  S
Fe91         O96   2.071       .  S
Fe91        O103   2.082       .  S
Fe91         O92   2.112       .  S
Fe91        O100   1.961       .  S
O92          C99   1.276       .  A
O93         C107   1.269       .  A
O94          C99   1.259       .  A
O95          C98   1.273       .  A
O96         C108   1.269       .  A
O97         C110   1.270       .  A
C98         O103   1.278       .  A
C98         C850   1.462       .  S
C99         C868   1.422       .  S
O101        C104   1.266       .  A
O102        C104   1.266       .  A
C104        C851   1.432       .  S
O105        C110   1.270       .  A
O106        C108   1.265       .  A
C107        O109   1.288       .  A
C107        C846   1.465       .  S
C108        C848   1.432       .  S
C110        C869   1.420       .  S
Fe111       O127   2.046       .  S
Fe111       O117   2.092       .  S
Fe111       O124   2.073       .  S
Fe111       O116   2.014       .  S
Fe111       O122   1.946       .  S
Fe112       O115   2.054       .  S
Fe112       O119   2.057       .  S
Fe112       O123   2.062       .  S
Fe112       O128   2.060       .  S
Fe112       O122   1.943       .  S
Fe113       O131   2.152       .  S
Fe113       O118   2.070       .  S
Fe113       O125   2.082       .  S
Fe113       O114   2.113       .  S
Fe113       O122   1.961       .  S
O114        C121   1.276       .  A
O115        C129   1.269       .  A
O116        C121   1.259       .  A
O117        C120   1.273       .  A
O118        C130   1.269       .  A
O119        C132   1.270       .  A
C120        O125   1.278       .  A
C120        C849   1.462       .  S
C121        C858   1.422       .  S
O123        C126   1.266       .  A
O124        C126   1.266       .  A
C126        C844   1.432       .  S
O127        C132   1.270       .  A
O128        C130   1.265       .  A
C129        O131   1.288       .  A
C129        C842   1.466       .  S
C130        C840   1.431       .  S
C132        C860   1.420       .  S
Fe133       O149   2.075   1_655  S
Fe133       O139   2.013       .  S
Fe133       O146   2.046       .  S
Fe133       O138   2.090       .  S
Fe133       O144   1.949       .  S
Fe134       O137   2.060       .  S
Fe134       O141   2.061       .  S
Fe134      O1041   2.056       .  S
Fe134      O1046   2.053       .  S
Fe134       O144   1.943       .  S
Fe135       O153   2.071       .  S
Fe135       O140   2.152       .  S
Fe135       O147   2.112       .  S
Fe135       O136   2.079       .  S
Fe135       O144   1.961       .  S
O136        C143   1.277       .  A
O137        C151   1.265       .  A
O138        C143   1.273       .  A
O139        C142   1.259       .  A
O140       C1048   1.288       .  A
O141        C154   1.266   1_655  A
C142        O147   1.276       .  A
C142        C831   1.421       .  S
C143        C835   1.460       .  S
O145      Fe1030   2.056   1_554  S
O145        C148   1.269       .  A
O146       C1044   1.270       .  A
C148       O1042   1.270   1_554  A
C148        C829   1.420   1_655  S
O149        C154   1.266       .  A
O150      Fe1030   2.053   1_554  S
O150        C152   1.269       .  A
C151        O153   1.269       .  A
C151        C833   1.432       .  S
C152       O1036   1.288   1_554  A
C152        C827   1.465       .  S
C154        C837   1.432       .  S
Fe155       O171   2.074   1_655  S
Fe155       O161   2.013       .  S
Fe155       O168   2.047       .  S
Fe155       O160   2.090       .  S
Fe155       O166   1.948       .  S
Fe156       O159   2.059       .  S
Fe156       O163   2.061       .  S
Fe156       O167   2.055       .  S
Fe156       O172   2.053       .  S
Fe156       O166   1.943       .  S
Fe157       O175   2.071       .  S
Fe157       O162   2.153       .  S
Fe157       O169   2.113       .  S
Fe157       O158   2.079       .  S
Fe157       O166   1.961       .  S
O158        C165   1.278       .  A
O159        C173   1.265       .  A
O160        C165   1.273       .  A
O161        C164   1.259       .  A
O162        C174   1.289       .  A
O163        C176   1.266   1_655  A
C164        O169   1.276       .  A
C164        C825   1.422       .  S
C165        C836   1.460       .  S
O167        C170   1.269       .  A
O168        C170   1.270       .  A
C170        C824   1.421   1_655  S
O171        C176   1.266       .  A
O172        C174   1.269       .  A
C173        O175   1.269       .  A
C173        C896   1.432       .  S
C174        C822   1.466       .  S
C176        C839   1.431       .  S
Fe177       O193   2.075       .  S
Fe177       O183   2.013       .  S
Fe177       O190   2.047       .  S
Fe177       O182   2.090       .  S
Fe177       O188   1.948       .  S
Fe178       O181   2.059       .  S
Fe178       O185   2.062       .  S
Fe178       O189   2.055       .  S
Fe178       O194   2.053       .  S
Fe178       O188   1.943       .  S
Fe179       O197   2.071       .  S
Fe179       O184   2.152       .  S
Fe179       O191   2.112       .  S
Fe179       O180   2.079       .  S
Fe179       O188   1.961       .  S
O180        C187   1.278       .  A
O181        C195   1.265       .  A
O182        C187   1.273       .  A
O183        C186   1.259       .  A
O184        C196   1.288       .  A
O185        C198   1.266       .  A
C186        O191   1.276       .  A
C186        C818   1.421       .  S
C187        C820   1.460       .  S
O189        C192   1.269       .  A
O190        C192   1.270       .  A
C192        C815   1.420       .  S
O193        C198   1.266       .  A
O194        C196   1.269       .  A
C195        O197   1.269       .  A
C195        C884   1.431       .  S
C196        C813   1.466       .  S
C198        C847   1.432       .  S
Fe199       O215   2.074       .  S
Fe199       O205   2.013       .  S
Fe199       O212   2.047       .  S
Fe199       O204   2.091       .  S
Fe199       O210   1.948       .  S
Fe200       O203   2.059       .  S
Fe200       O207   2.062       .  S
Fe200      O1107   2.055   1_554  S
Fe200      O1112   2.053   1_554  S
Fe200       O210   1.943       .  S
Fe201       O219   2.071       .  S
Fe201       O206   2.152       .  S
Fe201       O213   2.112       .  S
Fe201       O202   2.079       .  S
Fe201       O210   1.961       .  S
O202        C209   1.278       .  A
O203        C217   1.265       .  A
O204        C209   1.273       .  A
O205        C208   1.259       .  A
O206       C1114   1.288   1_554  A
O207        C220   1.266       .  A
C208        O213   1.276       .  A
C208        C807   1.421       .  S
C209        C819   1.460       .  S
O211      Fe1096   2.055       .  S
O211        C214   1.269       .  A
O212       C1110   1.270   1_554  A
C214       O1108   1.270       .  A
C214        C806   1.420       .  S
O215        C220   1.266       .  A
O216      Fe1096   2.053       .  S
O216        C218   1.269       .  A
C217        O219   1.269       .  A
C217        C809   1.431       .  S
C218       O1102   1.288       .  A
C218        C803   1.466       .  S
C220        C812   1.432       .  S
Fe221       O237   2.046       .  S
Fe221       O227   2.092       .  S
Fe221       O234   2.073       .  S
Fe221       O226   2.014       .  S
Fe221       O232   1.946       .  S
Fe222       O225   2.054       .  S
Fe222       O229   2.057       .  S
Fe222       O233   2.063       .  S
Fe222       O238   2.060       .  S
Fe222       O232   1.943       .  S
Fe223       O241   2.152       .  S
Fe223       O228   2.070       .  S
Fe223       O235   2.081       .  S
Fe223      O1120   2.113       .  S
Fe223       O232   1.961       .  S
O224      Fe1119   2.113   1_554  S
O224        C231   1.276       .  A
O225        C239   1.269       .  A
O226       C1127   1.259       .  A
O227        C230   1.273       .  A
O228        C240   1.269       .  A
O229        C242   1.270       .  A
C230        O235   1.278       .  A
C230        C802   1.462       .  S
C231       O1122   1.259   1_554  A
C231        C798   1.422       .  S
O233        C236   1.266       .  A
O234        C236   1.266       .  A
C236        C834   1.432       .  S
O237        C242   1.270       .  A
O238        C240   1.265       .  A
C239        O241   1.288       .  A
C239        C795   1.466       .  S
C240        C794   1.431       .  S
C242        C799   1.420       .  S
Fe243       O259   2.045       .  S
Fe243       O249   2.091       .  S
Fe243       O256   2.073       .  S
Fe243       O248   2.014       .  S
Fe243       O254   1.947       .  S
Fe244       O247   2.053       .  S
Fe244       O251   2.058       .  S
Fe244       O255   2.062       .  S
Fe244       O260   2.061       .  S
Fe244       O254   1.943       .  S
Fe245       O263   2.152       .  S
Fe245       O250   2.070       .  S
Fe245       O257   2.082       .  S
Fe245      O1142   2.113   1_554  S
Fe245       O254   1.961       .  S
O246      Fe1141   2.113       .  S
O246        C253   1.276       .  A
O247        C261   1.269       .  A
O248       C1149   1.259   1_554  A
O249        C252   1.273       .  A
O250        C262   1.269       .  A
O251        C264   1.270       .  A
C252        O257   1.278       .  A
C252        C801   1.462       .  S
C253       O1144   1.259       .  A
C253        C788   1.422       .  S
O255        C258   1.266       .  A
O256        C258   1.265       .  A
C258        C810   1.431       .  S
O259        C264   1.270       .  A
O260        C262   1.265       .  A
C261        O263   1.288       .  A
C261        C791   1.466       .  S
C262        C786   1.432       .  S
C264        C789   1.420       .  S
Fe265       O281   2.074   1_455  S
Fe265       O271   2.013       .  S
Fe265       O278   2.048       .  S
Fe265       O270   2.090       .  S
Fe265       O276   1.948       .  S
Fe266       O269   2.059       .  S
Fe266       O273   2.061       .  S
Fe266      O1173   2.055       .  S
Fe266      O1178   2.053       .  S
Fe266       O276   1.942       .  S
Fe267       O285   2.071       .  S
Fe267       O272   2.153       .  S
Fe267       O279   2.112       .  S
Fe267       O268   2.080       .  S
Fe267       O276   1.961       .  S
O268        C275   1.278       .  A
O269        C283   1.265       .  A
O270        C275   1.273       .  A
O271        C274   1.259       .  A
O272       C1180   1.289       .  A
O273        C286   1.266   1_455  A
C274        O279   1.276       .  A
C274        C784   1.421       .  S
C275        C779   1.460       .  S
O277      Fe1162   2.055   1_554  S
O277        C280   1.269       .  A
O278       C1176   1.270       .  A
C280       O1174   1.270   1_554  A
C280        C782   1.421   1_455  S
O281        C286   1.266       .  A
O282      Fe1162   2.053   1_554  S
O282        C284   1.269       .  A
C283        O285   1.269       .  A
C283        C778   1.432       .  S
C284       O1168   1.289   1_554  A
C284        C775   1.467       .  S
C286        C793   1.431       .  S
Fe287       O303   2.075   1_455  S
Fe287       O293   2.013       .  S
Fe287       O300   2.047       .  S
Fe287       O292   2.090       .  S
Fe287       O298   1.948       .  S
Fe288       O291   2.059       .  S
Fe288       O295   2.061       .  S
Fe288       O299   2.056       .  S
Fe288       O304   2.053       .  S
Fe288       O298   1.942       .  S
Fe289       O307   2.071       .  S
Fe289       O294   2.152       .  S
Fe289       O301   2.111       .  S
Fe289       O290   2.080       .  S
Fe289       O298   1.961       .  S
O290        C297   1.278       .  A
O291        C305   1.265       .  A
O292        C297   1.273       .  A
O293        C296   1.259       .  A
O294        C306   1.288       .  A
O295        C308   1.266   1_455  A
C296        O301   1.276       .  A
C296        C774   1.421       .  S
C297        C780   1.460       .  S
O299        C302   1.269       .  A
O300        C302   1.270       .  A
C302        C771   1.420   1_455  S
O303        C308   1.266       .  A
O304        C306   1.269       .  A
C305        O307   1.269       .  A
C305        C843   1.432       .  S
C306        C855   1.466       .  S
C308        C886   1.432       .  S
Fe309       O325   2.046       .  S
Fe309       O315   2.092       .  S
Fe309       O322   2.074       .  S
Fe309       O314   2.014       .  S
Fe309       O320   1.947       .  S
Fe310       O313   2.053       .  S
Fe310       O317   2.057       .  S
Fe310       O321   2.062       .  S
Fe310       O326   2.061       .  S
Fe310       O320   1.943       .  S
Fe311       O329   2.152       .  S
Fe311       O316   2.071       .  S
Fe311       O323   2.081       .  S
Fe311      O1208   2.113       .  S
Fe311       O320   1.961       .  S
O312      Fe1207   2.113   1_554  S
O312        C319   1.276       .  A
O313        C327   1.269       .  A
O314       C1215   1.259       .  A
O315        C318   1.273       .  A
O316        C328   1.269       .  A
O317        C330   1.270       .  A
C318        O323   1.278       .  A
C318        C763   1.462       .  S
C319       O1210   1.259   1_554  A
C319        C768   1.422       .  S
O321        C324   1.266       .  A
O322        C324   1.266       .  A
C324        C777   1.432       .  S
O325        C330   1.270       .  A
O326        C328   1.265       .  A
C327        O329   1.288       .  A
C327        C765   1.466       .  S
C328        C838   1.432       .  S
C330        C769   1.420       .  S
Fe331       O347   2.046       .  S
Fe331       O337   2.091       .  S
Fe331       O344   2.073       .  S
Fe331       O336   2.014       .  S
Fe331       O342   1.946       .  S
Fe332       O335   2.053       .  S
Fe332       O339   2.057       .  S
Fe332       O343   2.062       .  S
Fe332       O348   2.061       .  S
Fe332       O342   1.943       .  S
Fe333       O351   2.152       .  S
Fe333       O338   2.071       .  S
Fe333       O345   2.082       .  S
Fe333      O1230   2.112   1_554  S
Fe333       O342   1.961       .  S
O334      Fe1229   2.112       .  S
O334        C341   1.275       .  A
O335        C349   1.269       .  A
O336       C1237   1.259   1_554  A
O337        C340   1.273       .  A
O338        C350   1.269       .  A
O339        C352   1.270       .  A
C340        O345   1.279       .  A
C340        C764   1.462       .  S
C341       O1232   1.259       .  A
C341        C757   1.422       .  S
O343        C346   1.266       .  A
O344        C346   1.266       .  A
C346        C761   1.431       .  S
O347        C352   1.270       .  A
O348        C350   1.265       .  A
C349        O351   1.288       .  A
C349        C755   1.466       .  S
C350        C811   1.432       .  S
C352        C760   1.420       .  S
Fe353       O369   2.046       .  S
Fe353       O359   2.092       .  S
Fe353       O366   2.073   1_455  S
Fe353       O358   2.014       .  S
Fe353       O364   1.947       .  S
Fe354       O365   2.062       .  S
Fe354       O370   2.060       .  S
Fe354      O1253   2.053   1_554  S
Fe354      O1257   2.058   1_554  S
Fe354       O364   1.943       .  S
Fe355       O373   2.152       .  S
Fe355       O360   2.071       .  S
Fe355       O367   2.082       .  S
Fe355       O356   2.113       .  S
Fe355       O364   1.961       .  S
O356        C363   1.276       .  A
O357      Fe1250   2.053       .  S
O357        C371   1.269       .  A
O358        C363   1.259       .  A
O359        C362   1.273       .  A
O360        C372   1.269       .  A
O361      Fe1250   2.058       .  S
O361        C374   1.270       .  A
C362        O367   1.278       .  A
C362        C752   1.462       .  S
C363        C823   1.422       .  S
O365        C368   1.266   1_455  A
O366        C368   1.266       .  A
C368        C754   1.431       .  S
O369       C1270   1.270   1_554  A
O370        C372   1.265       .  A
C371       O1269   1.288       .  A
C371        C841   1.466       .  S
C372        C861   1.431       .  S
O373       C1267   1.288   1_554  A
C374       O1265   1.270       .  A
C374        C826   1.420   1_455  S
Fe375       O391   2.046       .  S
Fe375       O381   2.092       .  S
Fe375       O388   2.073   1_455  S
Fe375       O380   2.014       .  S
Fe375       O386   1.946       .  S
Fe376       O379   2.054       .  S
Fe376       O383   2.057       .  S
Fe376       O387   2.063       .  S
Fe376       O392   2.060       .  S
Fe376       O386   1.943       .  S
Fe377       O395   2.152       .  S
Fe377       O382   2.071       .  S
Fe377       O389   2.082       .  S
Fe377       O378   2.113       .  S
Fe377       O386   1.962       .  S
O378        C385   1.276       .  A
O379        C393   1.269       .  A
O380        C385   1.259       .  A
O381        C384   1.273       .  A
O382        C394   1.269       .  A
O383        C396   1.270       .  A
C384        O389   1.278       .  A
C384        C751   1.462       .  S
C385        C830   1.422       .  S
O387        C390   1.266   1_455  A
O388        C390   1.266       .  A
C390        C749   1.432       .  S
O391        C396   1.270       .  A
O392        C394   1.265       .  A
C393        O395   1.288       .  A
C393        C766   1.466       .  S
C394        C747   1.432       .  S
C396        C832   1.420   1_455  S
Fe397       O413   2.045       .  S
Fe397       O403   2.091       .  S
Fe397       O410   2.073   1_655  S
Fe397       O402   2.014       .  S
Fe397       O408   1.947       .  S
Fe398       O409   2.063       .  S
Fe398       O414   2.061       .  S
Fe398      O1297   2.053   1_554  S
Fe398      O1301   2.057   1_554  S
Fe398       O408   1.943       .  S
Fe399       O417   2.152       .  S
Fe399       O404   2.071       .  S
Fe399       O411   2.082       .  S
Fe399       O400   2.113       .  S
Fe399       O408   1.961       .  S
O400        C407   1.276       .  A
O401      Fe1294   2.053       .  S
O401        C415   1.269       .  A
O402        C407   1.259       .  A
O403        C406   1.273       .  A
O404        C416   1.269       .  A
O405      Fe1294   2.057       .  S
O405        C418   1.270       .  A
C406        O411   1.278       .  A
C406        C745   1.462       .  S
C407        C772   1.422       .  S
O409        C412   1.266   1_655  A
O410        C412   1.266       .  A
C412        C853   1.432       .  S
O413       C1314   1.270   1_554  A
O414        C416   1.265       .  A
C415       O1313   1.288       .  A
C415        C887   1.466       .  S
C416        C743   1.432       .  S
O417       C1311   1.288   1_554  A
C418       O1309   1.270       .  A
C418        C773   1.420   1_655  S
Fe419       O435   2.046       .  S
Fe419       O425   2.091       .  S
Fe419       O432   2.073   1_655  S
Fe419       O424   2.014       .  S
Fe419       O430   1.947       .  S
Fe420       O423   2.053       .  S
Fe420       O427   2.058       .  S
Fe420       O431   2.062       .  S
Fe420       O436   2.060       .  S
Fe420       O430   1.943       .  S
Fe421       O439   2.152       .  S
Fe421       O426   2.071       .  S
Fe421       O433   2.082       .  S
Fe421       O422   2.113       .  S
Fe421       O430   1.961       .  S
O422        C429   1.276       .  A
O423        C437   1.269       .  A
O424        C429   1.259       .  A
O425        C428   1.273       .  A
O426        C438   1.269       .  A
O427        C440   1.270       .  A
C428        O433   1.278       .  A
C428        C746   1.462       .  S
C429        C781   1.423       .  S
O431        C434   1.266   1_655  A
O432        C434   1.265       .  A
C434        C741   1.431       .  S
O435        C440   1.270       .  A
O436        C438   1.265       .  A
C437        O439   1.288       .  A
C437        C796   1.466       .  S
C438        C739   1.432       .  S
C440        C783   1.420   1_655  S
Fe441       O457   2.074       .  S
Fe441       O447   2.013       .  S
Fe441       O454   2.047       .  S
Fe441       O446   2.090       .  S
Fe441       O452   1.948       .  S
Fe442       O445   2.060       .  S
Fe442       O449   2.062       .  S
Fe442       O453   2.056       .  S
Fe442       O458   2.054       .  S
Fe442       O452   1.943       .  S
Fe443       O461   2.070       .  S
Fe443       O448   2.153       .  S
Fe443       O444   2.079       .  S
Fe443      O1351   2.112   1_554  S
Fe443       O452   1.961       .  S
O444        C451   1.278       .  A
O445        C459   1.265       .  A
O446        C451   1.273       .  A
O447       C1346   1.259   1_554  A
O448        C460   1.288       .  A
O449        C462   1.266       .  A
C450        O455   1.276       .  A
C450       O1343   1.259       .  A
C450        C892   1.421       .  S
C451        C737   1.460       .  S
O453        C456   1.269       .  A
O454        C456   1.270       .  A
O455      Fe1339   2.112       .  S
C456        C890   1.421       .  S
O457        C462   1.266       .  A
O458        C460   1.269       .  A
C459        O461   1.269       .  A
C459        C753   1.431       .  S
C460        C821   1.466       .  S
C462        C744   1.432       .  S
Fe463       O479   2.075       .  S
Fe463       O469   2.013       .  S
Fe463       O476   2.047       .  S
Fe463       O468   2.090       .  S
Fe463       O474   1.948       .  S
Fe464       O467   2.059       .  S
Fe464       O471   2.062       .  S
Fe464       O475   2.055       .  S
Fe464       O480   2.053       .  S
Fe464       O474   1.943       .  S
Fe465       O483   2.071       .  S
Fe465       O470   2.152       .  S
Fe465       O466   2.079       .  S
Fe465      O1373   2.112       .  S
Fe465       O474   1.961       .  S
O466        C473   1.278       .  A
O467        C481   1.265       .  A
O468        C473   1.273       .  A
O469       C1368   1.259       .  A
O470        C482   1.288       .  A
O471        C484   1.266       .  A
C472        O477   1.276       .  A
C472       O1365   1.259   1_554  A
C472        C880   1.421       .  S
C473        C738   1.460       .  S
O475        C478   1.269       .  A
O476        C478   1.270       .  A
O477      Fe1361   2.112   1_554  S
C478        C878   1.420       .  S
O479        C484   1.266       .  A
O480        C482   1.269       .  A
C481        O483   1.269       .  A
C481        C733   1.432       .  S
C482        C814   1.466       .  S
C484        C735   1.432       .  S
Fe485       O501   2.074       .  S
Fe485       O491   2.013       .  S
Fe485       O498   2.047       .  S
Fe485       O490   2.090       .  S
Fe485       O496   1.948       .  S
Fe486       O489   2.059       .  S
Fe486       O493   2.061       .  S
Fe486       O497   2.056       .  S
Fe486       O502   2.053       .  S
Fe486       O496   1.943       .  S
Fe487       O505   2.071       .  S
Fe487       O492   2.152       .  S
Fe487       O499   2.112       .  S
Fe487       O488   2.079       .  S
Fe487       O496   1.961       .  S
O488        C495   1.278       .  A
O489        C503   1.265       .  A
O490        C495   1.273       .  A
O491        C494   1.259       .  A
O492        C504   1.288       .  A
O493        C506   1.266       .  A
C494        O499   1.276       .  A
C494        C732   1.421       .  S
C495        C728   1.461       .  S
O497        C500   1.269       .  A
O498        C500   1.270       .  A
C500        C729   1.421       .  S
O501        C506   1.266       .  A
O502        C504   1.269       .  A
C503        O505   1.269       .  A
C503        C852   1.432       .  S
C504        C866   1.466       .  S
C506        C876   1.432       .  S
Fe507       O523   2.074       .  S
Fe507       O513   2.013       .  S
Fe507       O520   2.047       .  S
Fe507       O512   2.090       .  S
Fe507       O518   1.948       .  S
Fe508       O511   2.059       .  S
Fe508       O515   2.061       .  S
Fe508      O1415   2.055   1_554  S
Fe508      O1420   2.053   1_554  S
Fe508       O518   1.943       .  S
Fe509       O527   2.071       .  S
Fe509       O514   2.152       .  S
Fe509       O521   2.111       .  S
Fe509       O510   2.079       .  S
Fe509       O518   1.961       .  S
O510        C517   1.278       .  A
O511        C525   1.265       .  A
O512        C517   1.273       .  A
O513        C516   1.259       .  A
O514       C1422   1.288   1_554  A
O515        C528   1.266       .  A
C516        O521   1.276       .  A
C516        C726   1.421       .  S
C517        C727   1.460       .  S
O519      Fe1404   2.055       .  S
O519        C522   1.269       .  A
O520       C1418   1.270   1_554  A
C522       O1416   1.270       .  A
C522        C723   1.420       .  S
O523        C528   1.266       .  A
O524      Fe1404   2.053       .  S
O524        C526   1.269       .  A
C525        O527   1.269       .  A
C525        C762   1.431       .  S
C526       O1410   1.288       .  A
C526        C721   1.466       .  S
C528        C785   1.432       .  S
Fe529       O545   2.075       .  S
Fe529       O535   2.013       .  S
Fe529       O542   2.047       .  S
Fe529       O534   2.091       .  S
Fe529       O540   1.948       .  S
Fe530       O533   2.059       .  S
Fe530       O537   2.061       .  S
Fe530       O541   2.055       .  S
Fe530       O546   2.053       .  S
Fe530       O540   1.943       .  S
Fe531       O549   2.071       .  S
Fe531       O536   2.153       .  S
Fe531       O543   2.112       .  S
Fe531       O532   2.079       .  S
Fe531       O540   1.961       .  S
O532        C539   1.278       .  A
O533        C547   1.265       .  A
O534        C539   1.273       .  A
O535        C538   1.259       .  A
O536        C548   1.288       .  A
O537        C550   1.266       .  A
C538        O543   1.276       .  A
C538        C759   1.421       .  S
C539        C718   1.461       .  S
O541        C544   1.269       .  A
O542        C544   1.270       .  A
C544        C758   1.420       .  S
O545        C550   1.266       .  A
O546        C548   1.269       .  A
C547        O549   1.269       .  A
C547        C716   1.432       .  S
C548        C722   1.466       .  S
C550        C720   1.432       .  S
Fe551       O567   2.074       .  S
Fe551       O557   2.013       .  S
Fe551       O564   2.047       .  S
Fe551       O556   2.090       .  S
Fe551       O562   1.948       .  S
Fe552       O555   2.059       .  S
Fe552       O559   2.062       .  S
Fe552       O563   2.055       .  S
Fe552       O568   2.053       .  S
Fe552       O562   1.943       .  S
Fe553       O571   2.071       .  S
Fe553       O558   2.154       .  S
Fe553       O565   2.112       .  S
Fe553       O554   2.080       .  S
Fe553       O562   1.961       .  S
O554        C561   1.278       .  A
O555        C569   1.265       .  A
O556        C561   1.273       .  A
O557        C560   1.259       .  A
O558        C570   1.289       .  A
O559        C572   1.266       .  A
C560        O565   1.276       .  A
C560        C770   1.421       .  S
C561        C717   1.461       .  S
O563        C566   1.269       .  A
O564        C566   1.270       .  A
C566        C767   1.421       .  S
O567        C572   1.266       .  A
O568        C570   1.269       .  A
C569        O571   1.269       .  A
C569        C742   1.431       .  S
C570        C776   1.467       .  S
C572        C748   1.432       .  S
Fe573       O589   2.045       .  S
Fe573       O579   2.091       .  S
Fe573       O586   2.073       .  S
Fe573       O578   2.013       .  S
Fe573       O584   1.947       .  S
Fe574       O585   2.062       .  S
Fe574       O590   2.061       .  S
Fe574      O1473   2.053       .  S
Fe574      O1477   2.058       .  S
Fe574       O584   1.943       .  S
Fe575       O593   2.152       .  S
Fe575       O580   2.071       .  S
Fe575       O587   2.082       .  S
Fe575       O576   2.114       .  S
Fe575       O584   1.961       .  S
O576        C583   1.276       .  A
O577      Fe1470   2.053   1_554  S
O577        C591   1.269       .  A
O578        C583   1.259       .  A
O579        C582   1.273       .  A
O580        C592   1.269       .  A
O581      Fe1470   2.058   1_554  S
O581        C594   1.270       .  A
C582        O587   1.278       .  A
C582        C713   1.462       .  S
C583        C730   1.422       .  S
O585        C588   1.266       .  A
O586        C588   1.266       .  A
C588        C863   1.431       .  S
O589       C1490   1.270       .  A
O590        C592   1.265       .  A
C591       O1489   1.288   1_554  A
C591        C882   1.465       .  S
C592        C736   1.432       .  S
O593       C1487   1.288       .  A
C594       O1485   1.270   1_554  A
C594        C731   1.420       .  S
Fe595       O611   2.046       .  S
Fe595       O601   2.091       .  S
Fe595       O608   2.073       .  S
Fe595       O600   2.014       .  S
Fe595       O606   1.947       .  S
Fe596       O599   2.054       .  S
Fe596       O603   2.057       .  S
Fe596       O607   2.063       .  S
Fe596       O612   2.061       .  S
Fe596       O606   1.943       .  S
Fe597       O615   2.152       .  S
Fe597       O602   2.071       .  S
Fe597       O609   2.081       .  S
Fe597       O598   2.113       .  S
Fe597       O606   1.961       .  S
O598        C605   1.276       .  A
O599        C613   1.269       .  A
O600        C605   1.259       .  A
O601        C604   1.273       .  A
O602        C614   1.269       .  A
O603        C616   1.270       .  A
C604        O609   1.278       .  A
C604        C714   1.462       .  S
C605        C724   1.422       .  S
O607        C610   1.266       .  A
O608        C610   1.266       .  A
C610        C715   1.432       .  S
O611        C616   1.270       .  A
O612        C614   1.266       .  A
C613        O615   1.288       .  A
C613        C792   1.466       .  S
C614        C711   1.432       .  S
C616        C725   1.420       .  S
Fe617       O633   2.074       .  S
Fe617       O623   2.013       .  S
Fe617       O630   2.047       .  S
Fe617       O622   2.090       .  S
Fe617       O628   1.948       .  S
Fe618       O621   2.060       .  S
Fe618       O625   2.061       .  S
Fe618       O629   2.056       .  S
Fe618       O634   2.053       .  S
Fe618       O628   1.943       .  S
Fe619       O637   2.071       .  S
Fe619       O624   2.152       .  S
Fe619       O631   2.111       .  S
Fe619       O620   2.079       .  S
Fe619       O628   1.961       .  S
O620        C627   1.278       .  A
O621        C635   1.265       .  A
O622        C627   1.273       .  A
O623        C626   1.259       .  A
O624        C636   1.288       .  A
O625        C638   1.266       .  A
C626        O631   1.276       .  A
C626        C800   1.421       .  S
C627        C710   1.460       .  S
O629        C632   1.269       .  A
O630        C632   1.270       .  A
C632        C797   1.421       .  S
O633        C638   1.266       .  A
O634        C636   1.268       .  A
C635        O637   1.269       .  A
C635        C750   1.432       .  S
C636        C828   1.465       .  S
C638        C740   1.432       .  S
Fe639       O655   2.074       .  S
Fe639       O645   2.013       .  S
Fe639       O652   2.047       .  S
Fe639       O644   2.091       .  S
Fe639       O650   1.948       .  S
Fe640       O643   2.059       .  S
Fe640       O647   2.062       .  S
Fe640       O651   2.055       .  S
Fe640       O656   2.053       .  S
Fe640       O650   1.943       .  S
Fe641       O659   2.071       .  S
Fe641       O646   2.152       .  S
Fe641       O653   2.112       .  S
Fe641       O642   2.079       .  S
Fe641       O650   1.961       .  S
O642        C649   1.278       .  A
O643        C657   1.265       .  A
O644        C649   1.273       .  A
O645        C648   1.259       .  A
O646        C658   1.288       .  A
O647        C660   1.266       .  A
C648        O653   1.276       .  A
C648        C790   1.421       .  S
C649        C709   1.460       .  S
O651        C654   1.269       .  A
O652        C654   1.270       .  A
C654        C787   1.420       .  S
O655        C660   1.266       .  A
O656        C658   1.269       .  A
C657        O659   1.269       .  A
C657        C707   1.431       .  S
C658        C804   1.466       .  S
C660        C712   1.432       .  S
Fe661       O677   2.046       .  S
Fe661       O667   2.092       .  S
Fe661       O674   2.073       .  S
Fe661       O666   2.014       .  S
Fe661       O672   1.946       .  S
Fe662       O673   2.063       .  S
Fe662       O678   2.061       .  S
Fe662      O1561   2.053       .  S
Fe662      O1565   2.057       .  S
Fe662       O672   1.942       .  S
Fe663       O681   2.151       .  S
Fe663       O668   2.070       .  S
Fe663       O675   2.081       .  S
Fe663       O664   2.112       .  S
Fe663       O672   1.961       .  S
O664        C671   1.275       .  A
O665      Fe1558   2.053   1_554  S
O665        C679   1.269       .  A
O666        C671   1.259       .  A
O667        C670   1.273       .  A
O668        C680   1.269       .  A
O669      Fe1558   2.057   1_554  S
O669        C682   1.270       .  A
C670        O675   1.278       .  A
C670        C705   1.461       .  S
C671        C816   1.422       .  S
O673        C676   1.266       .  A
O674        C676   1.266       .  A
C676        C734   1.432       .  S
O677       C1578   1.270       .  A
O678        C680   1.265       .  A
C679       O1577   1.288   1_554  A
C679        C845   1.465       .  S
C680        C874   1.431       .  S
O681       C1575   1.288       .  A
C682       O1573   1.270   1_554  A
C682        C817   1.420       .  S
Fe683       O699   2.045       .  S
Fe683       O689   2.091       .  S
Fe683       O696   2.073       .  S
Fe683       O688   2.014       .  S
Fe683       O694   1.947       .  S
Fe684       O687   2.053       .  S
Fe684       O691   2.058       .  S
Fe684       O695   2.062       .  S
Fe684       O700   2.061       .  S
Fe684       O694   1.943       .  S
Fe685       O703   2.152       .  S
Fe685       O690   2.071       .  S
Fe685       O697   2.082       .  S
Fe685       O686   2.113       .  S
Fe685       O694   1.961       .  S
O686        C693   1.276       .  A
O687        C701   1.269       .  A
O688        C693   1.259       .  A
O689        C692   1.273       .  A
O690        C702   1.269       .  A
O691        C704   1.270       .  A
C692        O697   1.278       .  A
C692        C706   1.461       .  S
C693        C805   1.422       .  S
O695        C698   1.266       .  A
O696        C698   1.266       .  A
C698        C708   1.431       .  S
O699        C704   1.270       .  A
O700        C702   1.265       .  A
C701        O703   1.288       .  A
C701        C756   1.466       .  S
C702        C719   1.432       .  S
C704        C808   1.420       .  S
C705        C706   1.223       .  T
C707        C708   1.204       .  T
C709        C710   1.223       .  T
C711        C712   1.204       .  T
C713        C714   1.223   1_565  T
C715        C716   1.204       .  T
C717        C718   1.223       .  T
C719        C720   1.204       .  T
C721        C722   1.225       .  T
C723        C724   1.200       .  T
C725        C726   1.199       .  T
C727        C728   1.223   1_545  T
C729        C730   1.200       .  T
C731        C732   1.199       .  T
C733        C734   1.204       .  T
C735        C736   1.204       .  T
C737       C1634   1.223   1_554  T
C738       C1633   1.223       .  T
C739        C740   1.204       .  T
C741        C742   1.204       .  T
C743        C744   1.204       .  T
C745        C746   1.224   1_565  T
C747        C748   1.204       .  T
C749        C750   1.204       .  T
C751        C752   1.224       .  T
C753        C754   1.204       .  T
C755        C756   1.225       .  T
C757        C758   1.200       .  T
C759        C760   1.200       .  T
C761        C762   1.204       .  T
C763       C1660   1.224       .  T
C764       C1659   1.224   1_554  T
C765        C766   1.225       .  T
C767        C768   1.200       .  T
C769        C770   1.200       .  T
C771        C772   1.200       .  T
C773        C774   1.199       .  T
C775        C776   1.226       .  T
C777        C778   1.204       .  T
C779        C780   1.223   1_545  T
C781        C782   1.200       .  T
C783        C784   1.200       .  T
C785        C786   1.204       .  T
C787        C788   1.200       .  T
C789        C790   1.200       .  T
C791        C792   1.225       .  T
C793        C794   1.204       .  T
C795        C796   1.225       .  T
C797        C798   1.200       .  T
C799        C800   1.199       .  T
C801       C1698   1.224   1_554  T
C802       C1697   1.224       .  T
C803        C804   1.225       .  T
C805        C806   1.200       .  T
C807        C808   1.200       .  T
C809        C810   1.204       .  T
C811        C812   1.204       .  T
C813        C814   1.225       .  T
C815        C816   1.200       .  T
C817        C818   1.200       .  T
C819        C820   1.223       .  T
C821        C822   1.226       .  T
C823        C824   1.200       .  T
C825        C826   1.200       .  T
C827        C828   1.225       .  T
C829        C830   1.200       .  T
C831        C832   1.199       .  T
C833        C834   1.204       .  T
C835        C836   1.223       .  T
C837        C838   1.204       .  T
C839        C840   1.204       .  T
C841        C842   1.226       .  T
C843        C844   1.204       .  T
C845        C846   1.225       .  T
C847        C848   1.204       .  T
C849        C850   1.224       .  T
C851        C852   1.204       .  T
C853        C854   1.204       .  T
C855        C856   1.225       .  T
C857        C858   1.200       .  T
C859        C860   1.199       .  T
C861        C862   1.204       .  T
C863        C864   1.204       .  T
C865        C866   1.225       .  T
C867        C868   1.200       .  T
C869        C870   1.200       .  T
C871       C1768   1.223   1_554  T
C872       C1767   1.223       .  T
C873        C874   1.204       .  T
C875        C876   1.204       .  T
C877        C878   1.200       .  T
C879        C880   1.200       .  T
C881        C882   1.225       .  T
C883        C884   1.204       .  T
C885        C886   1.204       .  T
C887        C888   1.225       .  T
C889        C890   1.200       .  T
C891        C892   1.199       .  T
C893        C894   1.223       .  T
C895        C896   1.204       .  T
Fe897       O913   2.045       .  S
Fe897       O903   2.091       .  S
Fe897       O910   2.073       .  S
Fe897       O902   2.014       .  S
Fe897       O908   1.947       .  S
Fe898       O901   2.053       .  S
Fe898       O905   2.058       .  S
Fe898       O909   2.063       .  S
Fe898       O914   2.061       .  S
Fe898       O908   1.943       .  S
Fe899       O917   2.152       .  S
Fe899       O904   2.070       .  S
Fe899       O911   2.081       .  S
Fe899       O900   2.114       .  S
Fe899       O908   1.961       .  S
O900        C907   1.276       .  A
O901        C915   1.269       .  A
O902        C907   1.259       .  A
O903        C906   1.273       .  A
O904        C916   1.269       .  A
O905        C918   1.270       .  A
C906        O911   1.278       .  A
C906       C1790   1.461       .  S
C907       C1785   1.422       .  S
O909        C912   1.266       .  A
O910        C912   1.266       .  A
C912       C1791   1.432       .  S
O913        C918   1.270       .  A
O914        C916   1.265       .  A
C915        O917   1.288       .  A
C915       C1784   1.466       .  S
C916       C1781   1.432       .  S
C918       C1787   1.420       .  S
Fe919       O935   2.046       .  S
Fe919       O925   2.091       .  S
Fe919       O932   2.073       .  S
Fe919       O924   2.014       .  S
Fe919       O930   1.946       .  S
Fe920       O923   2.053       .  S
Fe920       O927   2.058       .  S
Fe920       O931   2.062       .  S
Fe920       O936   2.061       .  S
Fe920       O930   1.942       .  S
Fe921       O939   2.151       .  S
Fe921       O926   2.070       .  S
Fe921       O933   2.081       .  S
Fe921       O922   2.112       .  S
Fe921       O930   1.961       .  S
O922        C929   1.275       .  A
O923        C937   1.269       .  A
O924        C929   1.259       .  A
O925        C928   1.273       .  A
O926        C938   1.269       .  A
O927        C940   1.270       .  A
C928        O933   1.278       .  A
C928       C1789   1.461       .  S
C929       C1773   1.422       .  S
O931        C934   1.266       .  A
O932        C934   1.266       .  A
C934       C1779   1.431       .  S
O935        C940   1.270       .  A
O936        C938   1.266       .  A
C937        O939   1.288       .  A
C937       C1777   1.466       .  S
C938       C1771   1.431       .  S
C940       C1775   1.420       .  S
Fe941       O957   2.074       .  S
Fe941       O947   2.013       .  S
Fe941       O954   2.047       .  S
Fe941       O946   2.091       .  S
Fe941       O952   1.948       .  S
Fe942       O945   2.059       .  S
Fe942       O949   2.061       .  S
Fe942       O953   2.055       .  S
Fe942       O958   2.053       .  S
Fe942       O952   1.943       .  S
Fe943       O961   2.071       .  S
Fe943       O948   2.152       .  S
Fe943       O944   2.079       .  S
Fe943       O952   1.961       .  S
O944        C951   1.278       .  A
O945        C959   1.265       .  A
O946        C951   1.273       .  A
O948        C960   1.289       .  A
O949        C962   1.266       .  A
C950        O955   1.276       .  A
C950       C1766   1.421       .  S
C951       C1768   1.461       .  S
O953        C956   1.269       .  A
O954        C956   1.270       .  A
C956       C1763   1.420       .  S
O957        C962   1.266       .  A
O958        C960   1.269       .  A
C959        O961   1.269       .  A
C959       C1760   1.431       .  S
C960       C1761   1.466       .  S
C962       C1769   1.431       .  S
Fe963       O979   2.075       .  S
Fe963       O969   2.013       .  S
Fe963       O976   2.047       .  S
Fe963       O968   2.090       .  S
Fe963       O974   1.949       .  S
Fe964       O967   2.059       .  S
Fe964       O971   2.061       .  S
Fe964       O975   2.055       .  S
Fe964       O980   2.053       .  S
Fe964       O974   1.943       .  S
Fe965       O983   2.072       .  S
Fe965       O970   2.152       .  S
Fe965       O966   2.080       .  S
Fe965       O974   1.961       .  S
O966        C973   1.278       .  A
O967        C981   1.265       .  A
O968        C973   1.273       .  A
O970        C982   1.288       .  A
O971        C984   1.266       .  A
C972        O977   1.276       .  A
C972       C1755   1.421       .  S
C973       C1767   1.460       .  S
O975        C978   1.269       .  A
O976        C978   1.270       .  A
C978       C1753   1.421       .  S
O979        C984   1.266       .  A
O980        C982   1.269       .  A
C981        O983   1.269       .  A
C981       C1750   1.432       .  S
C982       C1752   1.466       .  S
C984       C1758   1.432       .  S
Fe985      O1001   2.045       .  S
Fe985       O991   2.091       .  S
Fe985       O998   2.073       .  S
Fe985       O990   2.014       .  S
Fe985       O996   1.947       .  S
Fe986       O989   2.053       .  S
Fe986       O993   2.058       .  S
Fe986       O997   2.062       .  S
Fe986      O1002   2.061       .  S
Fe986       O996   1.943       .  S
Fe987      O1005   2.152       .  S
Fe987       O992   2.071       .  S
Fe987       O999   2.082       .  S
Fe987       O988   2.112       .  S
Fe987       O996   1.961       .  S
O988        C995   1.276       .  A
O989       C1003   1.269       .  A
O990        C995   1.259       .  A
O991        C994   1.273       .  A
O992       C1004   1.269       .  A
O993       C1006   1.270       .  A
C994        O999   1.278       .  A
C994       C1746   1.462       .  S
C995       C1764   1.422       .  S
O997       C1000   1.266       .  A
O998       C1000   1.266       .  A
C1000      C1747   1.432       .  S
O1001      C1006   1.270       .  A
O1002      C1004   1.265       .  A
C1003      O1005   1.288       .  A
C1003      C1742   1.465       .  S
C1004      C1744   1.432       .  S
C1006      C1765   1.420       .  S
Fe1007     O1023   2.046       .  S
Fe1007     O1013   2.092       .  S
Fe1007     O1020   2.073       .  S
Fe1007     O1012   2.014       .  S
Fe1007     O1018   1.946       .  S
Fe1008     O1011   2.054       .  S
Fe1008     O1015   2.057       .  S
Fe1008     O1019   2.062       .  S
Fe1008     O1024   2.060       .  S
Fe1008     O1018   1.943       .  S
Fe1009     O1027   2.152       .  S
Fe1009     O1014   2.070       .  S
Fe1009     O1021   2.082       .  S
Fe1009     O1010   2.113       .  S
Fe1009     O1018   1.961       .  S
O1010      C1017   1.276       .  A
O1011      C1025   1.269       .  A
O1012      C1017   1.259       .  A
O1013      C1016   1.273       .  A
O1014      C1026   1.269       .  A
O1015      C1028   1.270       .  A
C1016      O1021   1.278       .  A
C1016      C1745   1.462       .  S
C1017      C1754   1.422       .  S
O1019      C1022   1.266       .  A
O1020      C1022   1.266       .  A
C1022      C1740   1.432       .  S
O1023      C1028   1.270       .  A
O1024      C1026   1.265       .  A
C1025      O1027   1.288       .  A
C1025      C1738   1.466       .  S
C1026      C1736   1.431       .  S
C1028      C1756   1.420       .  S
Fe1029     O1045   2.075   1_655  S
Fe1029     O1035   2.013       .  S
Fe1029     O1042   2.046       .  S
Fe1029     O1034   2.090       .  S
Fe1029     O1040   1.949       .  S
Fe1030     O1033   2.060       .  S
Fe1030     O1037   2.061       .  S
Fe1030     O1040   1.943       .  S
Fe1031     O1049   2.071       .  S
Fe1031     O1036   2.152       .  S
Fe1031     O1043   2.112       .  S
Fe1031     O1032   2.079       .  S
Fe1031     O1040   1.961       .  S
O1032      C1039   1.277       .  A
O1033      C1047   1.265       .  A
O1034      C1039   1.273       .  A
O1035      C1038   1.259       .  A
O1037      C1050   1.266   1_655  A
C1038      O1043   1.276       .  A
C1038      C1727   1.421       .  S
C1039      C1731   1.460       .  S
O1041      C1044   1.269       .  A
C1044      C1725   1.420   1_655  S
O1045      C1050   1.266       .  A
O1046      C1048   1.269       .  A
C1047      O1049   1.269       .  A
C1047      C1729   1.432       .  S
C1048      C1723   1.465       .  S
C1050      C1733   1.432       .  S
Fe1051     O1067   2.074   1_655  S
Fe1051     O1057   2.013       .  S
Fe1051     O1064   2.047       .  S
Fe1051     O1056   2.090       .  S
Fe1051     O1062   1.948       .  S
Fe1052     O1055   2.059       .  S
Fe1052     O1059   2.061       .  S
Fe1052     O1063   2.055       .  S
Fe1052     O1068   2.053       .  S
Fe1052     O1062   1.943       .  S
Fe1053     O1071   2.071       .  S
Fe1053     O1058   2.153       .  S
Fe1053     O1065   2.113       .  S
Fe1053     O1054   2.079       .  S
Fe1053     O1062   1.961       .  S
O1054      C1061   1.278       .  A
O1055      C1069   1.265       .  A
O1056      C1061   1.273       .  A
O1057      C1060   1.259       .  A
O1058      C1070   1.289       .  A
O1059      C1072   1.266   1_655  A
C1060      O1065   1.276       .  A
C1060      C1721   1.422       .  S
C1061      C1732   1.460       .  S
O1063      C1066   1.269       .  A
O1064      C1066   1.270       .  A
C1066      C1720   1.421   1_655  S
O1067      C1072   1.266       .  A
O1068      C1070   1.269       .  A
C1069      O1071   1.269       .  A
C1069      C1792   1.432       .  S
C1070      C1718   1.466       .  S
C1072      C1735   1.431       .  S
Fe1073     O1089   2.075       .  S
Fe1073     O1079   2.013       .  S
Fe1073     O1086   2.047       .  S
Fe1073     O1078   2.090       .  S
Fe1073     O1084   1.948       .  S
Fe1074     O1077   2.059       .  S
Fe1074     O1081   2.062       .  S
Fe1074     O1085   2.055       .  S
Fe1074     O1090   2.053       .  S
Fe1074     O1084   1.943       .  S
Fe1075     O1093   2.071       .  S
Fe1075     O1080   2.152       .  S
Fe1075     O1087   2.112       .  S
Fe1075     O1076   2.079       .  S
Fe1075     O1084   1.961       .  S
O1076      C1083   1.278       .  A
O1077      C1091   1.265       .  A
O1078      C1083   1.273       .  A
O1079      C1082   1.259       .  A
O1080      C1092   1.288       .  A
O1081      C1094   1.266       .  A
C1082      O1087   1.276       .  A
C1082      C1714   1.421       .  S
C1083      C1716   1.460       .  S
O1085      C1088   1.269       .  A
O1086      C1088   1.270       .  A
C1088      C1711   1.420       .  S
O1089      C1094   1.266       .  A
O1090      C1092   1.269       .  A
C1091      O1093   1.269       .  A
C1091      C1780   1.431       .  S
C1092      C1709   1.466       .  S
C1094      C1743   1.432       .  S
Fe1095     O1111   2.074       .  S
Fe1095     O1101   2.013       .  S
Fe1095     O1108   2.047       .  S
Fe1095     O1100   2.091       .  S
Fe1095     O1106   1.948       .  S
Fe1096     O1099   2.059       .  S
Fe1096     O1103   2.062       .  S
Fe1096     O1106   1.943       .  S
Fe1097     O1115   2.071       .  S
Fe1097     O1102   2.152       .  S
Fe1097     O1109   2.112       .  S
Fe1097     O1098   2.079       .  S
Fe1097     O1106   1.961       .  S
O1098      C1105   1.278       .  A
O1099      C1113   1.265       .  A
O1100      C1105   1.273       .  A
O1101      C1104   1.259       .  A
O1103      C1116   1.266       .  A
C1104      O1109   1.276       .  A
C1104      C1703   1.421       .  S
C1105      C1715   1.460       .  S
O1107      C1110   1.269       .  A
C1110      C1702   1.420       .  S
O1111      C1116   1.266       .  A
O1112      C1114   1.269       .  A
C1113      O1115   1.269       .  A
C1113      C1705   1.431       .  S
C1114      C1699   1.466       .  S
C1116      C1708   1.432       .  S
Fe1117     O1133   2.046       .  S
Fe1117     O1123   2.092       .  S
Fe1117     O1130   2.073       .  S
Fe1117     O1122   2.014       .  S
Fe1117     O1128   1.946       .  S
Fe1118     O1121   2.054       .  S
Fe1118     O1125   2.057       .  S
Fe1118     O1129   2.063       .  S
Fe1118     O1134   2.060       .  S
Fe1118     O1128   1.943       .  S
Fe1119     O1137   2.152       .  S
Fe1119     O1124   2.070       .  S
Fe1119     O1131   2.081       .  S
Fe1119     O1128   1.961       .  S
O1120      C1127   1.276       .  A
O1121      C1135   1.269       .  A
O1123      C1126   1.273       .  A
O1124      C1136   1.269       .  A
O1125      C1138   1.270       .  A
C1126      O1131   1.278       .  A
C1126      C1698   1.462       .  S
C1127      C1694   1.422       .  S
O1129      C1132   1.266       .  A
O1130      C1132   1.266       .  A
C1132      C1730   1.432       .  S
O1133      C1138   1.270       .  A
O1134      C1136   1.265       .  A
C1135      O1137   1.288       .  A
C1135      C1691   1.466       .  S
C1136      C1690   1.431       .  S
C1138      C1695   1.420       .  S
Fe1139     O1155   2.045       .  S
Fe1139     O1145   2.091       .  S
Fe1139     O1152   2.073       .  S
Fe1139     O1144   2.014       .  S
Fe1139     O1150   1.947       .  S
Fe1140     O1143   2.053       .  S
Fe1140     O1147   2.058       .  S
Fe1140     O1151   2.062       .  S
Fe1140     O1156   2.061       .  S
Fe1140     O1150   1.943       .  S
Fe1141     O1159   2.152       .  S
Fe1141     O1146   2.070       .  S
Fe1141     O1153   2.082       .  S
Fe1141     O1150   1.961       .  S
O1142      C1149   1.276       .  A
O1143      C1157   1.269       .  A
O1145      C1148   1.273       .  A
O1146      C1158   1.269       .  A
O1147      C1160   1.270       .  A
C1148      O1153   1.278       .  A
C1148      C1697   1.462       .  S
C1149      C1684   1.422       .  S
O1151      C1154   1.266       .  A
O1152      C1154   1.265       .  A
C1154      C1706   1.431       .  S
O1155      C1160   1.270       .  A
O1156      C1158   1.265       .  A
C1157      O1159   1.288       .  A
C1157      C1687   1.466       .  S
C1158      C1682   1.432       .  S
C1160      C1685   1.420       .  S
Fe1161     O1177   2.074   1_455  S
Fe1161     O1167   2.013       .  S
Fe1161     O1174   2.048       .  S
Fe1161     O1166   2.090       .  S
Fe1161     O1172   1.948       .  S
Fe1162     O1165   2.059       .  S
Fe1162     O1169   2.061       .  S
Fe1162     O1172   1.942       .  S
Fe1163     O1181   2.071       .  S
Fe1163     O1168   2.153       .  S
Fe1163     O1175   2.112       .  S
Fe1163     O1164   2.080       .  S
Fe1163     O1172   1.961       .  S
O1164      C1171   1.278       .  A
O1165      C1179   1.265       .  A
O1166      C1171   1.273       .  A
O1167      C1170   1.259       .  A
O1169      C1182   1.266   1_455  A
C1170      O1175   1.276       .  A
C1170      C1680   1.421       .  S
C1171      C1675   1.460       .  S
O1173      C1176   1.269       .  A
C1176      C1678   1.421   1_455  S
O1177      C1182   1.266       .  A
O1178      C1180   1.269       .  A
C1179      O1181   1.269       .  A
C1179      C1674   1.432       .  S
C1180      C1671   1.467       .  S
C1182      C1689   1.431       .  S
Fe1183     O1199   2.075   1_455  S
Fe1183     O1189   2.013       .  S
Fe1183     O1196   2.047       .  S
Fe1183     O1188   2.090       .  S
Fe1183     O1194   1.948       .  S
Fe1184     O1187   2.059       .  S
Fe1184     O1191   2.061       .  S
Fe1184     O1195   2.056       .  S
Fe1184     O1200   2.053       .  S
Fe1184     O1194   1.942       .  S
Fe1185     O1203   2.071       .  S
Fe1185     O1190   2.152       .  S
Fe1185     O1197   2.111       .  S
Fe1185     O1186   2.080       .  S
Fe1185     O1194   1.961       .  S
O1186      C1193   1.278       .  A
O1187      C1201   1.265       .  A
O1188      C1193   1.273       .  A
O1189      C1192   1.259       .  A
O1190      C1202   1.288       .  A
O1191      C1204   1.266   1_455  A
C1192      O1197   1.276       .  A
C1192      C1670   1.421       .  S
C1193      C1676   1.460       .  S
O1195      C1198   1.269       .  A
O1196      C1198   1.270       .  A
C1198      C1667   1.420   1_455  S
O1199      C1204   1.266       .  A
O1200      C1202   1.269       .  A
C1201      O1203   1.269       .  A
C1201      C1739   1.432       .  S
C1202      C1751   1.466       .  S
C1204      C1782   1.432       .  S
Fe1205     O1221   2.046       .  S
Fe1205     O1211   2.092       .  S
Fe1205     O1218   2.074       .  S
Fe1205     O1210   2.014       .  S
Fe1205     O1216   1.947       .  S
Fe1206     O1209   2.053       .  S
Fe1206     O1213   2.057       .  S
Fe1206     O1217   2.062       .  S
Fe1206     O1222   2.061       .  S
Fe1206     O1216   1.943       .  S
Fe1207     O1225   2.152       .  S
Fe1207     O1212   2.071       .  S
Fe1207     O1219   2.081       .  S
Fe1207     O1216   1.961       .  S
O1208      C1215   1.276       .  A
O1209      C1223   1.269       .  A
O1211      C1214   1.273       .  A
O1212      C1224   1.269       .  A
O1213      C1226   1.270       .  A
C1214      O1219   1.278       .  A
C1214      C1659   1.462       .  S
C1215      C1664   1.422       .  S
O1217      C1220   1.266       .  A
O1218      C1220   1.266       .  A
C1220      C1673   1.432       .  S
O1221      C1226   1.270       .  A
O1222      C1224   1.265       .  A
C1223      O1225   1.288       .  A
C1223      C1661   1.466       .  S
C1224      C1734   1.432       .  S
C1226      C1665   1.420       .  S
Fe1227     O1243   2.046       .  S
Fe1227     O1233   2.091       .  S
Fe1227     O1240   2.073       .  S
Fe1227     O1232   2.014       .  S
Fe1227     O1238   1.946       .  S
Fe1228     O1231   2.053       .  S
Fe1228     O1235   2.057       .  S
Fe1228     O1239   2.062       .  S
Fe1228     O1244   2.061       .  S
Fe1228     O1238   1.943       .  S
Fe1229     O1247   2.152       .  S
Fe1229     O1234   2.071       .  S
Fe1229     O1241   2.082       .  S
Fe1229     O1238   1.961       .  S
O1230      C1237   1.275       .  A
O1231      C1245   1.269       .  A
O1233      C1236   1.273       .  A
O1234      C1246   1.269       .  A
O1235      C1248   1.270       .  A
C1236      O1241   1.279       .  A
C1236      C1660   1.462       .  S
C1237      C1653   1.422       .  S
O1239      C1242   1.266       .  A
O1240      C1242   1.266       .  A
C1242      C1657   1.431       .  S
O1243      C1248   1.270       .  A
O1244      C1246   1.265       .  A
C1245      O1247   1.288       .  A
C1245      C1651   1.466       .  S
C1246      C1707   1.432       .  S
C1248      C1656   1.420       .  S
Fe1249     O1265   2.046       .  S
Fe1249     O1255   2.092       .  S
Fe1249     O1262   2.073   1_455  S
Fe1249     O1254   2.014       .  S
Fe1249     O1260   1.947       .  S
Fe1250     O1261   2.062       .  S
Fe1250     O1266   2.060       .  S
Fe1250     O1260   1.943       .  S
Fe1251     O1269   2.152       .  S
Fe1251     O1256   2.071       .  S
Fe1251     O1263   2.082       .  S
Fe1251     O1252   2.113       .  S
Fe1251     O1260   1.961       .  S
O1252      C1259   1.276       .  A
O1253      C1267   1.269       .  A
O1254      C1259   1.259       .  A
O1255      C1258   1.273       .  A
O1256      C1268   1.269       .  A
O1257      C1270   1.270       .  A
C1258      O1263   1.278       .  A
C1258      C1648   1.462       .  S
C1259      C1719   1.422       .  S
O1261      C1264   1.266   1_455  A
O1262      C1264   1.266       .  A
C1264      C1650   1.431       .  S
O1266      C1268   1.265       .  A
C1267      C1737   1.466       .  S
C1268      C1757   1.432       .  S
C1270      C1722   1.420   1_455  S
Fe1271     O1287   2.046       .  S
Fe1271     O1277   2.092       .  S
Fe1271     O1284   2.073   1_455  S
Fe1271     O1276   2.014       .  S
Fe1271     O1282   1.946       .  S
Fe1272     O1275   2.054       .  S
Fe1272     O1279   2.057       .  S
Fe1272     O1283   2.063       .  S
Fe1272     O1288   2.060       .  S
Fe1272     O1282   1.943       .  S
Fe1273     O1291   2.152       .  S
Fe1273     O1278   2.071       .  S
Fe1273     O1285   2.082       .  S
Fe1273     O1274   2.113       .  S
Fe1273     O1282   1.962       .  S
O1274      C1281   1.276       .  A
O1275      C1289   1.269       .  A
O1276      C1281   1.259       .  A
O1277      C1280   1.273       .  A
O1278      C1290   1.269       .  A
O1279      C1292   1.270       .  A
C1280      O1285   1.278       .  A
C1280      C1647   1.462       .  S
C1281      C1726   1.422       .  S
O1283      C1286   1.266   1_455  A
O1284      C1286   1.266       .  A
C1286      C1645   1.432       .  S
O1287      C1292   1.270       .  A
O1288      C1290   1.265       .  A
C1289      O1291   1.288       .  A
C1289      C1662   1.466       .  S
C1290      C1643   1.432       .  S
C1292      C1728   1.420   1_455  S
Fe1293     O1309   2.045       .  S
Fe1293     O1299   2.091       .  S
Fe1293     O1306   2.073   1_655  S
Fe1293     O1298   2.014       .  S
Fe1293     O1304   1.947       .  S
Fe1294     O1305   2.063       .  S
Fe1294     O1310   2.061       .  S
Fe1294     O1304   1.943       .  S
Fe1295     O1313   2.152       .  S
Fe1295     O1300   2.071       .  S
Fe1295     O1307   2.082       .  S
Fe1295     O1296   2.113       .  S
Fe1295     O1304   1.961       .  S
O1296      C1303   1.276       .  A
O1297      C1311   1.269       .  A
O1298      C1303   1.259       .  A
O1299      C1302   1.273       .  A
O1300      C1312   1.269       .  A
O1301      C1314   1.270       .  A
C1302      O1307   1.278       .  A
C1302      C1641   1.462       .  S
C1303      C1668   1.422       .  S
O1305      C1308   1.266   1_655  A
O1306      C1308   1.266       .  A
C1308      C1749   1.432       .  S
O1310      C1312   1.265       .  A
C1311      C1783   1.466       .  S
C1312      C1639   1.432       .  S
C1314      C1669   1.420   1_655  S
Fe1315     O1331   2.046       .  S
Fe1315     O1321   2.091       .  S
Fe1315     O1328   2.073   1_655  S
Fe1315     O1320   2.014       .  S
Fe1315     O1326   1.947       .  S
Fe1316     O1319   2.053       .  S
Fe1316     O1323   2.058       .  S
Fe1316     O1327   2.062       .  S
Fe1316     O1332   2.060       .  S
Fe1316     O1326   1.943       .  S
Fe1317     O1335   2.152       .  S
Fe1317     O1322   2.071       .  S
Fe1317     O1329   2.082       .  S
Fe1317     O1318   2.113       .  S
Fe1317     O1326   1.961       .  S
O1318      C1325   1.276       .  A
O1319      C1333   1.269       .  A
O1320      C1325   1.259       .  A
O1321      C1324   1.273       .  A
O1322      C1334   1.269       .  A
O1323      C1336   1.270       .  A
C1324      O1329   1.278       .  A
C1324      C1642   1.462       .  S
C1325      C1677   1.423       .  S
O1327      C1330   1.266   1_655  A
O1328      C1330   1.265       .  A
C1330      C1637   1.431       .  S
O1331      C1336   1.270       .  A
O1332      C1334   1.265       .  A
C1333      O1335   1.288       .  A
C1333      C1692   1.466       .  S
C1334      C1635   1.432       .  S
C1336      C1679   1.420   1_655  S
Fe1337     O1353   2.074       .  S
Fe1337     O1343   2.013       .  S
Fe1337     O1350   2.047       .  S
Fe1337     O1342   2.090       .  S
Fe1337     O1348   1.948       .  S
Fe1338     O1341   2.060       .  S
Fe1338     O1345   2.062       .  S
Fe1338     O1349   2.056       .  S
Fe1338     O1354   2.054       .  S
Fe1338     O1348   1.943       .  S
Fe1339     O1357   2.070       .  S
Fe1339     O1344   2.153       .  S
Fe1339     O1340   2.079       .  S
Fe1339     O1348   1.961       .  S
O1340      C1347   1.278       .  A
O1341      C1355   1.265       .  A
O1342      C1347   1.273       .  A
O1344      C1356   1.288       .  A
O1345      C1358   1.266       .  A
C1346      O1351   1.276       .  A
C1346      C1788   1.421       .  S
C1347      C1633   1.460       .  S
O1349      C1352   1.269       .  A
O1350      C1352   1.270       .  A
C1352      C1786   1.421       .  S
O1353      C1358   1.266       .  A
O1354      C1356   1.269       .  A
C1355      O1357   1.269       .  A
C1355      C1649   1.431       .  S
C1356      C1717   1.466       .  S
C1358      C1640   1.432       .  S
Fe1359     O1375   2.075       .  S
Fe1359     O1365   2.013       .  S
Fe1359     O1372   2.047       .  S
Fe1359     O1364   2.090       .  S
Fe1359     O1370   1.948       .  S
Fe1360     O1363   2.059       .  S
Fe1360     O1367   2.062       .  S
Fe1360     O1371   2.055       .  S
Fe1360     O1376   2.053       .  S
Fe1360     O1370   1.943       .  S
Fe1361     O1379   2.071       .  S
Fe1361     O1366   2.152       .  S
Fe1361     O1362   2.079       .  S
Fe1361     O1370   1.961       .  S
O1362      C1369   1.278       .  A
O1363      C1377   1.265       .  A
O1364      C1369   1.273       .  A
O1366      C1378   1.288       .  A
O1367      C1380   1.266       .  A
C1368      O1373   1.276       .  A
C1368      C1776   1.421       .  S
C1369      C1634   1.460       .  S
O1371      C1374   1.269       .  A
O1372      C1374   1.270       .  A
C1374      C1774   1.420       .  S
O1375      C1380   1.266       .  A
O1376      C1378   1.269       .  A
C1377      O1379   1.269       .  A
C1377      C1629   1.432       .  S
C1378      C1710   1.466       .  S
C1380      C1631   1.432       .  S
Fe1381     O1397   2.074       .  S
Fe1381     O1387   2.013       .  S
Fe1381     O1394   2.047       .  S
Fe1381     O1386   2.090       .  S
Fe1381     O1392   1.948       .  S
Fe1382     O1385   2.059       .  S
Fe1382     O1389   2.061       .  S
Fe1382     O1393   2.056       .  S
Fe1382     O1398   2.053       .  S
Fe1382     O1392   1.943       .  S
Fe1383     O1401   2.071       .  S
Fe1383     O1388   2.152       .  S
Fe1383     O1395   2.112       .  S
Fe1383     O1384   2.079       .  S
Fe1383     O1392   1.961       .  S
O1384      C1391   1.278       .  A
O1385      C1399   1.265       .  A
O1386      C1391   1.273       .  A
O1387      C1390   1.259       .  A
O1388      C1400   1.288       .  A
O1389      C1402   1.266       .  A
C1390      O1395   1.276       .  A
C1390      C1628   1.421       .  S
C1391      C1624   1.461       .  S
O1393      C1396   1.269       .  A
O1394      C1396   1.270       .  A
C1396      C1625   1.421       .  S
O1397      C1402   1.266       .  A
O1398      C1400   1.269       .  A
C1399      O1401   1.269       .  A
C1399      C1748   1.432       .  S
C1400      C1762   1.466       .  S
C1402      C1772   1.432       .  S
Fe1403     O1419   2.074       .  S
Fe1403     O1409   2.013       .  S
Fe1403     O1416   2.047       .  S
Fe1403     O1408   2.090       .  S
Fe1403     O1414   1.948       .  S
Fe1404     O1407   2.059       .  S
Fe1404     O1411   2.061       .  S
Fe1404     O1414   1.943       .  S
Fe1405     O1423   2.071       .  S
Fe1405     O1410   2.152       .  S
Fe1405     O1417   2.111       .  S
Fe1405     O1406   2.079       .  S
Fe1405     O1414   1.961       .  S
O1406      C1413   1.278       .  A
O1407      C1421   1.265       .  A
O1408      C1413   1.273       .  A
O1409      C1412   1.259       .  A
O1411      C1424   1.266       .  A
C1412      O1417   1.276       .  A
C1412      C1622   1.421       .  S
C1413      C1623   1.460       .  S
O1415      C1418   1.269       .  A
C1418      C1619   1.420       .  S
O1419      C1424   1.266       .  A
O1420      C1422   1.269       .  A
C1421      O1423   1.269       .  A
C1421      C1658   1.431       .  S
C1422      C1617   1.466       .  S
C1424      C1681   1.432       .  S
Fe1425     O1441   2.075       .  S
Fe1425     O1431   2.013       .  S
Fe1425     O1438   2.047       .  S
Fe1425     O1430   2.091       .  S
Fe1425     O1436   1.948       .  S
Fe1426     O1429   2.059       .  S
Fe1426     O1433   2.061       .  S
Fe1426     O1437   2.055       .  S
Fe1426     O1442   2.053       .  S
Fe1426     O1436   1.943       .  S
Fe1427     O1445   2.071       .  S
Fe1427     O1432   2.153       .  S
Fe1427     O1439   2.112       .  S
Fe1427     O1428   2.079       .  S
Fe1427     O1436   1.961       .  S
O1428      C1435   1.278       .  A
O1429      C1443   1.265       .  A
O1430      C1435   1.273       .  A
O1431      C1434   1.259       .  A
O1432      C1444   1.288       .  A
O1433      C1446   1.266       .  A
C1434      O1439   1.276       .  A
C1434      C1655   1.421       .  S
C1435      C1614   1.461       .  S
O1437      C1440   1.269       .  A
O1438      C1440   1.270       .  A
C1440      C1654   1.420       .  S
O1441      C1446   1.266       .  A
O1442      C1444   1.269       .  A
C1443      O1445   1.269       .  A
C1443      C1612   1.432       .  S
C1444      C1618   1.466       .  S
C1446      C1616   1.432       .  S
Fe1447     O1463   2.074       .  S
Fe1447     O1453   2.013       .  S
Fe1447     O1460   2.047       .  S
Fe1447     O1452   2.090       .  S
Fe1447     O1458   1.948       .  S
Fe1448     O1451   2.059       .  S
Fe1448     O1455   2.062       .  S
Fe1448     O1459   2.055       .  S
Fe1448     O1464   2.053       .  S
Fe1448     O1458   1.943       .  S
Fe1449     O1467   2.071       .  S
Fe1449     O1454   2.154       .  S
Fe1449     O1461   2.112       .  S
Fe1449     O1450   2.080       .  S
Fe1449     O1458   1.961       .  S
O1450      C1457   1.278       .  A
O1451      C1465   1.265       .  A
O1452      C1457   1.273       .  A
O1453      C1456   1.259       .  A
O1454      C1466   1.289       .  A
O1455      C1468   1.266       .  A
C1456      O1461   1.276       .  A
C1456      C1666   1.421       .  S
C1457      C1613   1.461       .  S
O1459      C1462   1.269       .  A
O1460      C1462   1.270       .  A
C1462      C1663   1.421       .  S
O1463      C1468   1.266       .  A
O1464      C1466   1.269       .  A
C1465      O1467   1.269       .  A
C1465      C1638   1.431       .  S
C1466      C1672   1.467       .  S
C1468      C1644   1.432       .  S
Fe1469     O1485   2.045       .  S
Fe1469     O1475   2.091       .  S
Fe1469     O1482   2.073       .  S
Fe1469     O1474   2.013       .  S
Fe1469     O1480   1.947       .  S
Fe1470     O1481   2.062       .  S
Fe1470     O1486   2.061       .  S
Fe1470     O1480   1.943       .  S
Fe1471     O1489   2.152       .  S
Fe1471     O1476   2.071       .  S
Fe1471     O1483   2.082       .  S
Fe1471     O1472   2.114       .  S
Fe1471     O1480   1.961       .  S
O1472      C1479   1.276       .  A
O1473      C1487   1.269       .  A
O1474      C1479   1.259       .  A
O1475      C1478   1.273       .  A
O1476      C1488   1.269       .  A
O1477      C1490   1.270       .  A
C1478      O1483   1.278       .  A
C1478      C1609   1.462       .  S
C1479      C1626   1.422       .  S
O1481      C1484   1.266       .  A
O1482      C1484   1.266       .  A
C1484      C1759   1.431       .  S
O1486      C1488   1.265       .  A
C1487      C1778   1.466       .  S
C1488      C1632   1.432       .  S
C1490      C1627   1.420       .  S
Fe1491     O1507   2.046       .  S
Fe1491     O1497   2.091       .  S
Fe1491     O1504   2.073       .  S
Fe1491     O1496   2.014       .  S
Fe1491     O1502   1.947       .  S
Fe1492     O1495   2.054       .  S
Fe1492     O1499   2.057       .  S
Fe1492     O1503   2.063       .  S
Fe1492     O1508   2.061       .  S
Fe1492     O1502   1.943       .  S
Fe1493     O1511   2.152       .  S
Fe1493     O1498   2.071       .  S
Fe1493     O1505   2.081       .  S
Fe1493     O1494   2.113       .  S
Fe1493     O1502   1.961       .  S
O1494      C1501   1.276       .  A
O1495      C1509   1.269       .  A
O1496      C1501   1.259       .  A
O1497      C1500   1.273       .  A
O1498      C1510   1.269       .  A
O1499      C1512   1.270       .  A
C1500      O1505   1.278       .  A
C1500      C1610   1.462       .  S
C1501      C1620   1.422       .  S
O1503      C1506   1.266       .  A
O1504      C1506   1.266       .  A
C1506      C1611   1.432       .  S
O1507      C1512   1.270       .  A
O1508      C1510   1.266       .  A
C1509      O1511   1.288       .  A
C1509      C1688   1.466       .  S
C1510      C1607   1.432       .  S
C1512      C1621   1.420       .  S
Fe1513     O1529   2.074       .  S
Fe1513     O1519   2.013       .  S
Fe1513     O1526   2.047       .  S
Fe1513     O1518   2.090       .  S
Fe1513     O1524   1.948       .  S
Fe1514     O1517   2.060       .  S
Fe1514     O1521   2.061       .  S
Fe1514     O1525   2.056       .  S
Fe1514     O1530   2.053       .  S
Fe1514     O1524   1.943       .  S
Fe1515     O1533   2.071       .  S
Fe1515     O1520   2.152       .  S
Fe1515     O1527   2.111       .  S
Fe1515     O1516   2.079       .  S
Fe1515     O1524   1.961       .  S
O1516      C1523   1.278       .  A
O1517      C1531   1.265       .  A
O1518      C1523   1.273       .  A
O1519      C1522   1.259       .  A
O1520      C1532   1.288       .  A
O1521      C1534   1.266       .  A
C1522      O1527   1.276       .  A
C1522      C1696   1.421       .  S
C1523      C1606   1.460       .  S
O1525      C1528   1.269       .  A
O1526      C1528   1.270       .  A
C1528      C1693   1.421       .  S
O1529      C1534   1.266       .  A
O1530      C1532   1.268       .  A
C1531      O1533   1.269       .  A
C1531      C1646   1.432       .  S
C1532      C1724   1.465       .  S
C1534      C1636   1.432       .  S
Fe1535     O1551   2.074       .  S
Fe1535     O1541   2.013       .  S
Fe1535     O1548   2.047       .  S
Fe1535     O1540   2.091       .  S
Fe1535     O1546   1.948       .  S
Fe1536     O1539   2.059       .  S
Fe1536     O1543   2.062       .  S
Fe1536     O1547   2.055       .  S
Fe1536     O1552   2.053       .  S
Fe1536     O1546   1.943       .  S
Fe1537     O1555   2.071       .  S
Fe1537     O1542   2.152       .  S
Fe1537     O1549   2.112       .  S
Fe1537     O1538   2.079       .  S
Fe1537     O1546   1.961       .  S
O1538      C1545   1.278       .  A
O1539      C1553   1.265       .  A
O1540      C1545   1.273       .  A
O1541      C1544   1.259       .  A
O1542      C1554   1.288       .  A
O1543      C1556   1.266       .  A
C1544      O1549   1.276       .  A
C1544      C1686   1.421       .  S
C1545      C1605   1.460       .  S
O1547      C1550   1.269       .  A
O1548      C1550   1.270       .  A
C1550      C1683   1.420       .  S
O1551      C1556   1.266       .  A
O1552      C1554   1.269       .  A
C1553      O1555   1.269       .  A
C1553      C1603   1.431       .  S
C1554      C1700   1.466       .  S
C1556      C1608   1.432       .  S
Fe1557     O1573   2.046       .  S
Fe1557     O1563   2.092       .  S
Fe1557     O1570   2.073       .  S
Fe1557     O1562   2.014       .  S
Fe1557     O1568   1.946       .  S
Fe1558     O1569   2.063       .  S
Fe1558     O1574   2.061       .  S
Fe1558     O1568   1.942       .  S
Fe1559     O1577   2.151       .  S
Fe1559     O1564   2.070       .  S
Fe1559     O1571   2.081       .  S
Fe1559     O1560   2.112       .  S
Fe1559     O1568   1.961       .  S
O1560      C1567   1.275       .  A
O1561      C1575   1.269       .  A
O1562      C1567   1.259       .  A
O1563      C1566   1.273       .  A
O1564      C1576   1.269       .  A
O1565      C1578   1.270       .  A
C1566      O1571   1.278       .  A
C1566      C1601   1.461       .  S
C1567      C1712   1.422       .  S
O1569      C1572   1.266       .  A
O1570      C1572   1.266       .  A
C1572      C1630   1.432       .  S
O1574      C1576   1.265       .  A
C1575      C1741   1.465       .  S
C1576      C1770   1.431       .  S
C1578      C1713   1.420       .  S
Fe1579     O1595   2.045       .  S
Fe1579     O1585   2.091       .  S
Fe1579     O1592   2.073       .  S
Fe1579     O1584   2.014       .  S
Fe1579     O1590   1.947       .  S
Fe1580     O1583   2.053       .  S
Fe1580     O1587   2.058       .  S
Fe1580     O1591   2.062       .  S
Fe1580     O1596   2.061       .  S
Fe1580     O1590   1.943       .  S
Fe1581     O1599   2.152       .  S
Fe1581     O1586   2.071       .  S
Fe1581     O1593   2.082       .  S
Fe1581     O1582   2.113       .  S
Fe1581     O1590   1.961       .  S
O1582      C1589   1.276       .  A
O1583      C1597   1.269       .  A
O1584      C1589   1.259       .  A
O1585      C1588   1.273       .  A
O1586      C1598   1.269       .  A
O1587      C1600   1.270       .  A
C1588      O1593   1.278       .  A
C1588      C1602   1.461       .  S
C1589      C1701   1.422       .  S
O1591      C1594   1.266       .  A
O1592      C1594   1.266       .  A
C1594      C1604   1.431       .  S
O1595      C1600   1.270       .  A
O1596      C1598   1.265       .  A
C1597      O1599   1.288       .  A
C1597      C1652   1.466       .  S
C1598      C1615   1.432       .  S
C1600      C1704   1.420       .  S
C1601      C1602   1.223       .  T
C1603      C1604   1.204       .  T
C1605      C1606   1.223       .  T
C1607      C1608   1.204       .  T
C1609      C1610   1.223   1_565  T
C1611      C1612   1.204       .  T
C1613      C1614   1.223       .  T
C1615      C1616   1.204       .  T
C1617      C1618   1.226       .  T
C1619      C1620   1.200       .  T
C1621      C1622   1.199       .  T
C1623      C1624   1.223   1_545  T
C1625      C1626   1.200       .  T
C1627      C1628   1.199       .  T
C1629      C1630   1.204       .  T
C1631      C1632   1.204       .  T
C1635      C1636   1.204       .  T
C1637      C1638   1.204       .  T
C1639      C1640   1.204       .  T
C1641      C1642   1.224   1_565  T
C1643      C1644   1.204       .  T
C1645      C1646   1.204       .  T
C1647      C1648   1.224       .  T
C1649      C1650   1.204       .  T
C1651      C1652   1.225       .  T
C1653      C1654   1.200       .  T
C1655      C1656   1.200       .  T
C1657      C1658   1.204       .  T
C1661      C1662   1.225       .  T
C1663      C1664   1.200       .  T
C1665      C1666   1.200       .  T
C1667      C1668   1.200       .  T
C1669      C1670   1.199       .  T
C1671      C1672   1.226       .  T
C1673      C1674   1.204       .  T
C1675      C1676   1.223   1_545  T
C1677      C1678   1.200       .  T
C1679      C1680   1.200       .  T
C1681      C1682   1.204       .  T
C1683      C1684   1.200       .  T
C1685      C1686   1.200       .  T
C1687      C1688   1.225       .  T
C1689      C1690   1.204       .  T
C1691      C1692   1.225       .  T
C1693      C1694   1.200       .  T
C1695      C1696   1.199       .  T
C1699      C1700   1.225       .  T
C1701      C1702   1.200       .  T
C1703      C1704   1.200       .  T
C1705      C1706   1.204       .  T
C1707      C1708   1.204       .  T
C1709      C1710   1.225       .  T
C1711      C1712   1.200       .  T
C1713      C1714   1.200       .  T
C1715      C1716   1.223       .  T
C1717      C1718   1.226       .  T
C1719      C1720   1.200       .  T
C1721      C1722   1.200       .  T
C1723      C1724   1.225       .  T
C1725      C1726   1.200       .  T
C1727      C1728   1.199       .  T
C1729      C1730   1.204       .  T
C1731      C1732   1.223       .  T
C1733      C1734   1.204       .  T
C1735      C1736   1.204       .  T
C1737      C1738   1.226       .  T
C1739      C1740   1.204       .  T
C1741      C1742   1.225       .  T
C1743      C1744   1.204       .  T
C1745      C1746   1.224       .  T
C1747      C1748   1.204       .  T
C1749      C1750   1.204       .  T
C1751      C1752   1.225       .  T
C1753      C1754   1.200       .  T
C1755      C1756   1.199       .  T
C1757      C1758   1.204       .  T
C1759      C1760   1.204       .  T
C1761      C1762   1.225       .  T
C1763      C1764   1.200       .  T
C1765      C1766   1.199       .  T
C1769      C1770   1.204       .  T
C1771      C1772   1.204       .  T
C1773      C1774   1.200       .  T
C1775      C1776   1.200       .  T
C1777      C1778   1.225       .  T
C1779      C1780   1.204       .  T
C1781      C1782   1.204       .  T
C1783      C1784   1.225       .  T
C1785      C1786   1.200       .  T
C1787      C1788   1.199       .  T
C1789      C1790   1.223       .  T
C1791      C1792   1.204       .  T
