geometry optimzed in LAMMPS
_audit_creation_date              2020-11-30 
_audit_creation_method            'lammps2cif' 
_symmetry_space_group_name_H-M    'P1' 
_symmetry_Int_Tables_number       1 
_symmetry_cell_setting            triclinic 
loop_ 
_symmetry_equiv_pos_as_xyz 
  x,y,z 
_cell_length_a                    49.23807169 
_cell_length_b                    49.344208384398435 
_cell_length_c                    70.4585385740649 
_cell_angle_alpha                 89.76354324012408 
_cell_angle_beta                  90.85387560927211 
_cell_angle_gamma                 119.84325463527011 
loop_ 
_atom_site_label 
_atom_site_type_symbol 
_atom_site_fract_x 
_atom_site_fract_y 
_atom_site_fract_z 
_atom_site_charge 
Fe1        Fe  0.06261070  0.23691826  0.98341199     1.65800
Fe2        Fe  0.02291484  0.20447955  0.94218111     1.73200
Fe3        Fe  0.04073709  0.16172978  0.97172742     1.54400
O4          O  0.08262434  0.18110453  0.98685112    -0.82200
O5          O  0.98145605  0.16561730  0.94818066    -0.80500
O6          O  0.10107962  0.23225065  0.98793697    -0.84700
O7          O  0.03955419  0.20795891  0.00658766    -0.79600
O8          O  0.06523242  0.16486392  0.94733387    -0.81300
O9          O  0.00434808  0.22993414  0.95349348    -0.84100
C10         C  0.02091461  0.17865382  0.00896878     0.96700
C11         C  0.10412770  0.20861900  0.99065274     1.04100
O12         O  0.04242113  0.20143800  0.96583037    -1.13100
O13         O  0.06220164  0.24415888  0.93447804    -0.75500
O14         O  0.08710790  0.26818156  0.96142089    -0.79000
O15         O  0.01636350  0.15812435  0.99637783    -0.79700
C16         C  0.08415856  0.26703998  0.94332470     0.95600
O17         O  0.02717075  0.24727720  0.98165302    -0.77600
O18         O  0.03915503  0.17912721  0.92719398    -0.82800
C19         C  0.47809622  0.13866224  0.94934291     0.98200
C20         C  0.05783891  0.16873231  0.93054496     1.04100
O21         O  0.99903831  0.13401232  0.95677494    -0.78500
C22         C  0.00749348  0.24430191  0.96891999     1.02400
Fe23       Fe  0.25497166  0.42685711  0.84637455     1.65800
Fe24       Fe  0.28986698  0.46115772  0.88838672     1.73200
Fe25       Fe  0.32922353  0.44232302  0.85733000     1.54400
O26         O  0.30726247  0.40175709  0.84146841    -0.82200
O27         O  0.33035839  0.50152586  0.88350246    -0.80500
O28         O  0.25737838  0.38838434  0.83854077    -0.84700
O29         O  0.28438565  0.45386371  0.82428158    -0.79600
O30         O  0.32472747  0.41530428  0.88079071    -0.81300
O31         O  0.26662640  0.48389365  0.87862112    -0.84100
C32         C  0.31407078  0.46908720  0.82175739     0.96700
C33         C  0.27945918  0.38282029  0.83625316     1.04100
O34         O  0.29108499  0.44334245  0.86387645    -1.13100
O35         O  0.24935792  0.42209573  0.89496453    -0.75500
O36         O  0.22420820  0.39919949  0.86783083    -0.79000
O37         O  0.33400249  0.46848842  0.83333037    -0.79700
C38         C  0.22668025  0.40015666  0.88596402     0.95600
O39         O  0.24559710  0.46206034  0.85090118    -0.77600
O40         O  0.31295805  0.44077968  0.90226635    -0.82800
C41         C  0.35661105  0.50329736  0.88166340     0.98200
C42         C  0.32105956  0.42077533  0.89789737     1.04100
O43         O  0.35937051  0.48234907  0.87292860    -0.78500
C44         C  0.25072351  0.48167809  0.86383226     1.02400
Fe45       Fe  0.26130097  0.37361489  0.32134165     1.65800
Fe46       Fe  0.28122086  0.36535739  0.27721869     1.73200
Fe47       Fe  0.33121393  0.42794425  0.30390746     1.54400
O48         O  0.30950139  0.45225940  0.31271242    -0.82200
O49         O  0.32613430  0.37526667  0.27264823    -0.80500
O50         O  0.27246476  0.41707017  0.33107409    -0.84700
O51         O  0.29372091  0.37277719  0.33978253    -0.79600
O52         O  0.33002825  0.44305581  0.27634615    -0.81300
O53         O  0.27295557  0.32518350  0.29137543    -0.84100
C54         C  0.32234725  0.39331990  0.34241197     0.96700
C55         C  0.28843750  0.44472298  0.32503038     1.04100
O56         O  0.29154794  0.38905604  0.30084367    -1.13100
O57         O  0.23472493  0.35227765  0.27820432    -0.75500
O58         O  0.22826670  0.37484276  0.30365640    -0.79000
O59         O  0.33717668  0.41665163  0.33148051    -0.79700
C60         C  0.22001538  0.36304488  0.28714775     0.95600
O61         O  0.24470310  0.32705125  0.31508841    -0.77600
O62         O  0.28876016  0.40400820  0.26147792    -0.82800
C63         C  0.35222018  0.39016395  0.28126470     0.98200
C64         C  0.31100148  0.43221011  0.26227463     1.04100
O65         O  0.35668899  0.40764536  0.29543592    -0.78500
C66         C  0.25409805  0.31225115  0.30494360     1.02400
Fe67       Fe  0.06157892  0.37346614  0.18230894     1.65800
Fe68       Fe  0.03510701  0.37181628  0.22721818     1.73200
Fe69       Fe  0.04724282  0.43121018  0.19719225     1.54400
O70         O  0.09022165  0.45295791  0.18434937    -0.82200
O71         O  0.99748610  0.37760169  0.22926797    -0.80500
O72         O  0.09690198  0.41514997  0.17256280    -0.84700
O73         O  0.02990110  0.37390513  0.16262006    -0.79600
O74         O  0.07073665  0.45228553  0.22238629    -0.81300
O75         O  0.00559395  0.32784917  0.21556696    -0.84100
C76         C  0.01756828  0.39114824  0.16058191     0.96700
C77         C  0.10582534  0.44374265  0.17495526     1.04100
O78         O  0.04799487  0.39224302  0.20225575    -1.13100
O79         O  0.07149406  0.36364639  0.22861154    -0.75500
O80         O  0.09413929  0.37141287  0.20041173    -0.79000
O81         O  0.02342445  0.41367855  0.17176264    -0.79700
C82         C  0.09326994  0.36620752  0.21815141     0.95600
O83         O  0.02889404  0.32839000  0.18869943    -0.77600
O84         O  0.06253513  0.41347508  0.24213759    -0.82800
C85         C  0.48887162  0.39549260  0.22199514     0.98200
C86         C  0.07408656  0.44244550  0.23848784     1.04100
O87         O  0.00416483  0.41558810  0.20944057    -0.78500
C88         C  0.00818128  0.31418432  0.20104812     1.02400
Fe89       Fe  0.33965005  0.09390572  0.15414875     1.65800
Fe90       Fe  0.33465274  0.06333039  0.11011430     1.73200
Fe91       Fe  0.39841004  0.08181653  0.13865273     1.54400
O92         O  0.41974623  0.12606900  0.15050874    -0.82200
O93         O  0.34058157  0.02524780  0.10967603    -0.80500
O94         O  0.38153017  0.13003709  0.16390613    -0.84700
O95         O  0.34155869  0.06326640  0.17355202    -0.79600
O96         O  0.41664742  0.10269267  0.11239822    -0.81300
O97         O  0.29168894  0.03559507  0.12229949    -0.84100
C98         C  0.36108011  0.05375605  0.17628565     0.96700
C99         C  0.41022650  0.14065100  0.16071491     1.04100
O100        O  0.35766586  0.07964860  0.13427593    -1.13100
O101        O  0.32677050  0.10026277  0.10766346    -0.75500
O102        O  0.33666984  0.12492640  0.13562694    -0.79000
O103        O  0.38397761  0.06058972  0.16523439    -0.79700
C104        C  0.33031286  0.12292709  0.11792232     0.95600
O105        O  0.29395677  0.06128166  0.14846417    -0.77600
O106        O  0.37420025  0.08783433  0.09409263    -0.82800
C107        C  0.36179655  0.01985942  0.11565790     0.98200
C108        C  0.40370633  0.10099816  0.09629920     1.04100
O109        O  0.38367983  0.03822480  0.12686506    -0.78500
C110        C  0.27882139  0.03979933  0.13649781     1.02400
Fe111      Fe  0.33810033  0.29045566  0.01363277     1.65800
Fe112      Fe  0.33416824  0.31545343  0.05795040     1.73200
Fe113      Fe  0.39349296  0.36226062  0.02963759     1.54400
O114        O  0.41486581  0.34441858  0.01273731    -0.82200
O115        O  0.33137371  0.35514354  0.05554740    -0.80500
O116        O  0.38037164  0.29429019  0.00820006    -0.84700
O117        O  0.34416353  0.32366479  0.99291522    -0.79600
O118        O  0.41506935  0.35435727  0.05238395    -0.81300
O119        O  0.28907187  0.29138262  0.04667721    -0.84100
C120        C  0.35574925  0.35334208  0.99300603     0.96700
C121        C  0.40777090  0.31727993  0.00725707     1.04100
O122        O  0.35504747  0.32243888  0.03360871    -1.13100
O123        O  0.33486744  0.27513866  0.06170858    -0.75500
O124        O  0.33056257  0.25485376  0.03275943    -0.79000
O125        O  0.37300121  0.37085724  0.00650203    -0.79700
C126        C  0.33160194  0.25330473  0.05084051     0.95600
O127        O  0.29319427  0.28147563  0.01646176    -0.77600
O128        O  0.37664868  0.33825967  0.07333737    -0.82800
C129        C  0.35445662  0.38235779  0.05414379     0.98200
C130        C  0.40519734  0.34799796  0.06922935     1.04100
O131        O  0.38000519  0.38785160  0.04667976    -0.78500
C132        C  0.27705873  0.28066189  0.03045980     1.02400
Fe133      Fe  0.20154250  0.15160331  0.82028578     1.65800
Fe134      Fe  0.17041493  0.14915257  0.77679018     1.73200
Fe135      Fe  0.12587580  0.09654855  0.80990727     1.54400
O136        O  0.14780967  0.07249872  0.81933831    -0.82200
O137        O  0.12517839  0.13946242  0.77459969    -0.80500
O138        O  0.19370170  0.10952475  0.83102868    -0.84700
O139        O  0.17507945  0.15584059  0.84143815    -0.79600
O140        O  0.11894671  0.07424842  0.78371215    -0.81300
O141        O  0.18289139  0.19298610  0.78710243    -0.84100
C142        C  0.14683417  0.13837060  0.84635785     0.96700
C143        C  0.17351323  0.08105940  0.82816630     1.04100
O144        O  0.16587649  0.13245609  0.80247056    -1.13100
O145        O  0.21635327  0.16145999  0.77423542    -0.75500
O146        O  0.23166500  0.14910945  0.80104604    -0.79000
O147        O  0.12746138  0.11466848  0.83668803    -0.79700
C148        C  0.23559972  0.15674336  0.78365603     0.95600
O149        O  0.21384449  0.19613501  0.81149160    -0.77600
O150        O  0.15829664  0.10627194  0.76505682    -0.82800
C151        C  0.10148600  0.12942788  0.78503897     0.98200
C152        C  0.13461712  0.07979957  0.76853984     1.04100
O153        O  0.10002500  0.11696276  0.80102233    -0.78500
C154        C  0.20320539  0.20852438  0.79989342     1.02400
Fe155      Fe  0.39769419  0.15719428  0.68075905     1.65800
Fe156      Fe  0.42313371  0.16246556  0.72591641     1.73200
Fe157      Fe  0.41350306  0.10260974  0.69839092     1.54400
O158        O  0.36855923  0.07869723  0.68766588    -0.82200
O159        O  0.45644682  0.15050292  0.73300965    -0.80500
O160        O  0.36549344  0.11436447  0.66992855    -0.84700
O161        O  0.43196160  0.15916190  0.66297425    -0.79600
O162        O  0.39462901  0.08584575  0.72519263    -0.81300
O163        O  0.45705294  0.20218959  0.71292938    -0.84100
C164        C  0.44167487  0.13976395  0.66081116     0.96700
C165        C  0.35439532  0.08654253  0.67563480     1.04100
O166        O  0.41157395  0.14059758  0.70160199    -1.13100
O167        O  0.39154605  0.17801013  0.72310666    -0.75500
O168        O  0.36243023  0.15513473  0.69750983    -0.79000
O169        O  0.43335653  0.11615474  0.67161302    -0.79700
C170        C  0.36581005  0.16673805  0.71402515     0.95600
O171        O  0.42785562  0.20284818  0.68864416    -0.77600
O172        O  0.38962256  0.12328349  0.73977693    -0.82800
C173        C  0.46918646  0.13742986  0.72436613     0.98200
C174        C  0.38440368  0.09532250  0.73873446     1.04100
O175        O  0.45836109  0.12271593  0.70892924    -0.78500
C176        C  0.45212642  0.21609226  0.69923650     1.02400
Fe177      Fe  0.39451385  0.29450760  0.48708164     1.65800
Fe178      Fe  0.43261420  0.33193605  0.44713962     1.73200
Fe179      Fe  0.41181853  0.36923603  0.47837985     1.54400
O180        O  0.36986464  0.34610892  0.49259934    -0.82200
O181        O  0.47289329  0.37102133  0.45492239    -0.80500
O182        O  0.35422626  0.29558098  0.49101502    -0.84700
O183        O  0.41558354  0.32175556  0.51141613    -0.79600
O184        O  0.38666144  0.36634941  0.45433835    -0.81300
O185        O  0.45308979  0.30662139  0.45726856    -0.84100
C186        C  0.43272924  0.35105989  0.51471718     0.96700
C187        C  0.34937530  0.31772558  0.49486701     1.04100
O188        O  0.41285836  0.33156978  0.47096611    -1.13100
O189        O  0.39368715  0.29275513  0.43791366    -0.75500
O190        O  0.37199225  0.26470805  0.46400247    -0.79000
O191        O  0.43614430  0.37201069  0.50280005    -0.79700
C192        C  0.37303943  0.26836795  0.44601520     0.95600
O193        O  0.43207361  0.28779153  0.48533154    -0.77600
O194        O  0.41464216  0.35734071  0.43327054    -0.82800
C195        C  0.47516942  0.39740012  0.45718375     0.98200
C196        C  0.39365013  0.36424756  0.43736128     1.04100
O197        O  0.45342239  0.40017535  0.46476678    -0.78500
C198        C  0.45138412  0.29202295  0.47247136     1.02400
Fe199      Fe  0.20493588  0.09462361  0.35313004     1.65800
Fe200      Fe  0.17702037  0.05910197  0.39564655     1.73200
Fe201      Fe  0.13368908  0.08033104  0.36870362     1.54400
O202        O  0.15394374  0.12210273  0.35369374    -0.82200
O203        O  0.13569893  0.01911603  0.39092691    -0.80500
O204        O  0.20250894  0.13384160  0.34771462    -0.84700
O205        O  0.17178018  0.06882810  0.33162799    -0.79600
O206        O  0.14153963  0.10586810  0.39346364    -0.81300
O207        O  0.19870165  0.03699261  0.38317959    -0.84100
C208        C  0.14176387  0.05280348  0.33100503     0.96700
C209        C  0.18099360  0.14057951  0.34743739     1.04100
O210        O  0.17228037  0.07838459  0.37243708    -1.13100
O211        O  0.21905258  0.09742727  0.40154651    -0.75500
O212        O  0.23931854  0.12065831  0.37377202    -0.79000
O213        O  0.12460608  0.05423255  0.34398390    -0.79700
C214        C  0.24065195  0.11881032  0.39186761     0.95600
O215        O  0.21413125  0.05884376  0.35499969    -0.77600
O216        O  0.15561484  0.07830679  0.41226450    -0.82800
C217        C  0.10947915  0.01778485  0.39071687     0.98200
C218        C  0.14575926  0.09766835  0.40990254     1.04100
O219        O  0.10577820  0.03967024  0.38401520    -0.78500
C220        C  0.21175933  0.03939838  0.36742941     1.02400
Fe221      Fe  0.12064075  0.43180318  0.65088663     1.65800
Fe222      Fe  0.12193553  0.47188991  0.61147857     1.73200
Fe223      Fe  0.06335538  0.44998235  0.64268439     1.54400
O224        O  0.04468834  0.40787711  0.65665641    -0.82200
O225        O  0.12239667  0.51171455  0.61945060    -0.80500
O226        O  0.07925753  0.39177893  0.65476714    -0.84700
O227        O  0.11572404  0.45305316  0.67510780    -0.79600
O228        O  0.04070006  0.42631686  0.61807122    -0.81300
O229        O  0.16735664  0.49184491  0.62174658    -0.84100
C230        C  0.10401032  0.47045969  0.67871194     0.96700
C231        C  0.05240704  0.38713928  0.65872505     1.04100
O232        O  0.10206432  0.45099326  0.63504131    -1.13100
O233        O  0.12305889  0.43355773  0.60176525    -0.75500
O234        O  0.12740186  0.40980423  0.62774964    -0.79000
O235        O  0.08511755  0.47351535  0.66749105    -0.79700
C236        C  0.12614926  0.41216540  0.60975290     0.95600
O237        O  0.16471820  0.46879180  0.64926905    -0.77600
O238        O  0.07894943  0.45492280  0.59779742    -0.82800
C239        C  0.09759221  0.51299581  0.62111112     0.98200
C240        C  0.05042842  0.43548262  0.60134181     1.04100
O241        O  0.07375330  0.49147201  0.62922541    -0.78500
C242        C  0.17993579  0.48900011  0.63685590     1.02400
Fe243      Fe  0.11776273  0.23812967  0.51844175     1.65800
Fe244      Fe  0.12009361  0.20366666  0.55983535     1.73200
Fe245      Fe  0.06119769  0.16399891  0.52849721     1.54400
O246        O  0.04157687  0.18584344  0.51276843    -0.82200
O247        O  0.12107483  0.16399569  0.55367027    -0.80500
O248        O  0.07623941  0.23640542  0.51317999    -0.84700
O249        O  0.11222178  0.20913035  0.49519882    -0.79600
O250        O  0.03934390  0.16863310  0.55206596    -0.81300
O251        O  0.16534665  0.22753814  0.54965968    -0.84100
C252        C  0.10119148  0.17972551  0.49278847     0.96700
C253        C  0.04914064  0.21403487  0.50969195     1.04100
O254        O  0.09981399  0.20231247  0.53555743    -1.13100
O255        O  0.12178347  0.24409674  0.56743481    -0.75500
O256        O  0.12499328  0.26949770  0.54046582    -0.79000
O257        O  0.08302734  0.15936290  0.50470641    -0.79700
C258        C  0.12477530  0.26779053  0.55857217     0.95600
O259        O  0.16206345  0.24566957  0.52132447    -0.77600
O260        O  0.07695886  0.17983906  0.57384823    -0.82800
C261        C  0.09724204  0.13758914  0.55118460     0.98200
C262        C  0.04886103  0.17239153  0.56927072     1.04100
O263        O  0.07218058  0.13423129  0.54368171    -0.78500
C264        C  0.17755175  0.24171782  0.53436703     1.02400
C265        C  0.09479091  0.03762193  0.61095019    -0.05800
C266        C  0.06894036  0.04179223  0.61385689    -0.05700
C267        C  0.06298779  0.06064046  0.60165054    -0.23900
C268        C  0.08264775  0.07536118  0.58627102     0.18400
C269        C  0.10897908  0.07167058  0.58339835     0.15600
C270        C  0.11497629  0.05305015  0.59581206    -0.18900
C271        C  0.12897749  0.08680002  0.56820557    -0.20700
C272        C  0.12384303  0.10678096  0.55655807    -0.13300
C273        C  0.09807135  0.11094071  0.55957205     0.03400
C274        C  0.07702012  0.09451875  0.57406697    -0.25400
H275        H  0.05281677  0.52975285  0.62524594     0.08500
H276        H  0.04281728  0.06339966  0.60409887     0.12100
H277        H  0.13466938  0.04956246  0.59316966     0.12000
H278        H  0.14922333  0.08414585  0.56580320     0.11800
H279        H  0.14061796  0.11996247  0.54567108     0.12300
H280        H  0.05767666  0.09857110  0.57673593     0.14300
C281        C  0.12771480  0.38884428  0.59741042    -0.05800
C282        C  0.12480436  0.39019014  0.57754838    -0.05700
C283        C  0.12459905  0.36735362  0.56583439    -0.23900
C284        C  0.12724156  0.34270104  0.57374934     0.18400
C285        C  0.13064027  0.34142357  0.59366063     0.15600
C286        C  0.13096277  0.36447640  0.60532863    -0.18900
C287        C  0.13315767  0.31681209  0.60165944    -0.20700
C288        C  0.13174860  0.29334299  0.59010735    -0.13300
C289        C  0.12788473  0.29399886  0.57027657     0.03400
C290        C  0.12602564  0.31905012  0.56214654    -0.25400
H291        H  0.12225075  0.40871349  0.57100948     0.08500
H292        H  0.12199401  0.36878008  0.55062472     0.12100
H293        H  0.13323000  0.36310995  0.62058216     0.12000
H294        H  0.13584751  0.31549582  0.61687323     0.11800
H295        H  0.13345762  0.27445530  0.59682379     0.12300
H296        H  0.12298433  0.31982081  0.54692266     0.14300
C297        C  0.11047199  0.16890089  0.47555164    -0.05800
C298        C  0.12316303  0.18864574  0.45976254    -0.05700
C299        C  0.13259215  0.17883243  0.44374175    -0.23900
C300        C  0.13005996  0.14921706  0.44323762     0.18400
C301        C  0.11798803  0.12940922  0.45915665     0.15600
C302        C  0.10795703  0.13916989  0.47505159    -0.18900
C303        C  0.11628938  0.10018398  0.45895948    -0.20700
C304        C  0.12615120  0.09051941  0.44313335    -0.13300
C305        C  0.13743520  0.10956221  0.42697072     0.03400
C306        C  0.13933418  0.13903026  0.42713750    -0.25400
H307        H  0.12562662  0.21171027  0.45973326     0.08500
H308        H  0.14200441  0.19449869  0.43176660     0.12100
H309        H  0.09875367  0.12381437  0.48718811     0.12000
H310        H  0.10723867  0.08471309  0.47104779     0.11800
H311        H  0.12415556  0.06764309  0.44334524     0.12300
H312        H  0.14816646  0.15403413  0.41482659     0.14300
C313        C  0.44990835  0.36166660  0.53306315    -0.05800
C314        C  0.44295356  0.34130314  0.54856717    -0.05700
C315        C  0.46000268  0.35191258  0.56566060    -0.23900
C316        C  0.48451979  0.38292506  0.56741049     0.18400
C317        C  0.49140722  0.40343433  0.55186126     0.15600
C318        C  0.47401452  0.39280980  0.53499008    -0.18900
C319        C  0.51608914  0.43421146  0.55318729    -0.20700
C320        C  0.03452802  0.44446359  0.56957027    -0.13300
C321        C  0.02842289  0.42432203  0.58506177     0.03400
C322        C  0.50287532  0.39367399  0.58413672    -0.25400
H323        H  0.42435431  0.31721483  0.54748512     0.08500
H324        H  0.45432311  0.33578608  0.57738435     0.12100
H325        H  0.47984528  0.40879676  0.52315972     0.12000
H326        H  0.52156647  0.45019517  0.54139531     0.11800
H327        H  0.05390658  0.46825754  0.57007288     0.12300
H328        H  0.49819202  0.37797839  0.59600688     0.14300
C329        C  0.08369540  0.99151607  0.40046072    -0.05800
C330        C  0.08051797  0.96170857  0.39940886    -0.05700
C331        C  0.05970411  0.93784573  0.41117270    -0.23900
C332        C  0.04220999  0.44366090  0.42439019     0.18400
C333        C  0.04526058  0.47362036  0.42560662     0.15600
C334        C  0.06582960  0.49735344  0.41346752    -0.18900
C335        C  0.52775549  0.47924096  0.43897237    -0.20700
C336        C  0.50614907  0.45489183  0.45031153    -0.13300
C337        C  0.50217351  0.42475086  0.44864793     0.03400
C338        C  0.02119193  0.41971028  0.43609698    -0.25400
H339        H  0.09464617  0.95710797  0.38972327     0.08500
H340        H  0.05758404  0.91496383  0.41010388     0.12100
H341        H  0.06901072  0.52066758  0.41471558     0.12000
H342        H  0.53007763  0.50218228  0.44024208     0.11800
H343        H  0.49174423  0.45935564  0.45983417     0.12300
H344        H  0.01843838  0.39660991  0.43458426     0.14300
C345        C  0.26767472  0.14267741  0.40281286    -0.05800
C346        C  0.27449999  0.13492817  0.42083758    -0.05700
C347        C  0.29655358  0.15788980  0.43287004    -0.23900
C348        C  0.31215763  0.18909994  0.42713953     0.18400
C349        C  0.30614049  0.19707803  0.40882731     0.15600
C350        C  0.28409717  0.17376398  0.39669326    -0.18900
C351        C  0.32178820  0.22833762  0.40313291    -0.20700
C352        C  0.34331028  0.25138787  0.41538103    -0.13300
C353        C  0.34942553  0.24365923  0.43360860     0.03400
C354        C  0.33355709  0.21244435  0.43946753    -0.25400
H355        H  0.26213809  0.11103794  0.42584962     0.08500
H356        H  0.30095783  0.15130142  0.44677882     0.12100
H357        H  0.27869571  0.17998454  0.38293567     0.12000
H358        H  0.31739924  0.23496638  0.38923300     0.11800
H359        H  0.35510972  0.27541272  0.41059283     0.12300
H360        H  0.33822566  0.20628097  0.45344540     0.14300
C361        C  0.47253812  0.27930171  0.47561650    -0.05800
C362        C  0.50310110  0.29473796  0.46858212    -0.05700
C363        C  0.02392843  0.28414788  0.47322995    -0.23900
C364        C  0.51427922  0.25770003  0.48471916     0.18400
C365        C  0.48308405  0.24114292  0.49107620     0.15600
C366        C  0.46252355  0.25219772  0.48660340    -0.18900
C367        C  0.47321203  0.21424767  0.50217458    -0.20700
C368        C  0.49439212  0.20443831  0.50751282    -0.13300
C369        C  0.02578143  0.22165781  0.50204310     0.03400
C370        C  0.03546193  0.24797118  0.49036551    -0.25400
H371        H  0.51119894  0.31562775  0.46008379     0.08500
H372        H  0.04771744  0.29694557  0.46812486     0.12100
H373        H  0.43878298  0.23990789  0.49185575     0.12000
H374        H  0.44929737  0.20118708  0.50704560     0.11800
H375        H  0.48659259  0.18419953  0.51657903     0.12300
H376        H  0.05965290  0.26118523  0.48595663     0.14300
C377        C  0.31870040  0.30979626  0.50240302    -0.05800
C378        C  0.30470924  0.32774905  0.49771622    -0.05700
C379        C  0.27452902  0.31861588  0.50383399    -0.23900
C380        C  0.25827775  0.29171807  0.51494793     0.18400
C381        C  0.27278090  0.27429434  0.52038076     0.15600
C382        C  0.30279216  0.28330933  0.51392019    -0.18900
C383        C  0.25676664  0.24779434  0.53185443    -0.20700
C384        C  0.22609410  0.23791695  0.53732425    -0.13300
C385        C  0.21105473  0.25421160  0.53114915     0.03400
C386        C  0.22747631  0.28146975  0.52030962    -0.25400
H387        H  0.31672306  0.34822676  0.48883447     0.08500
H388        H  0.26373685  0.33228625  0.49965464     0.12100
H389        H  0.31375434  0.26963496  0.51776399     0.12000
H390        H  0.26770986  0.23435809  0.53624033     0.11800
H391        H  0.21366927  0.21681901  0.54564098     0.12300
H392        H  0.21598888  0.29432013  0.51570644     0.14300
C393        C  0.02659948  0.16833388  0.58452389    -0.05800
C394        C  0.50349498  0.17673970  0.58131066    -0.05700
C395        C  0.48300428  0.17403638  0.59573579    -0.23900
C396        C  0.48463586  0.16209757  0.61356711     0.18400
C397        C  0.50746902  0.15309890  0.61686111     0.15600
C398        C  0.02862289  0.15678642  0.60246978    -0.18900
C399        C  0.50849936  0.14018527  0.63442713    -0.20700
C400        C  0.48693031  0.13579755  0.64848256    -0.13300
C401        C  0.46425726  0.14486764  0.64551634     0.03400
C402        C  0.46356520  0.15851195  0.62804396    -0.25400
H403        H  0.50165091  0.18597652  0.56767963     0.08500
H404        H  0.46567120  0.18101107  0.59287256     0.12100
H405        H  0.04622561  0.15006700  0.60509231     0.12000
H406        H  0.02576885  0.13310193  0.63723054     0.11800
H407        H  0.48820991  0.12555796  0.66185902     0.12300
H408        H  0.44613587  0.16549089  0.62554090     0.14300
C409        C  0.47490836  0.24871565  0.69501739    -0.05800
C410        C  0.50697674  0.26065107  0.69854286    -0.05700
C411        C  0.02865828  0.29052244  0.69229596    -0.23900
C412        C  0.51840716  0.30879942  0.68264936     0.18400
C413        C  0.48603975  0.29728429  0.67969719     0.15600
C414        C  0.46456769  0.26733416  0.68585543    -0.18900
C415        C  0.47568465  0.31568129  0.67034987    -0.20700
C416        C  0.49731252  0.34522879  0.66373635    -0.13300
C417        C  0.02951490  0.35649510  0.66617315     0.03400
C418        C  0.03993985  0.33824878  0.67572678    -0.25400
H419        H  0.51529762  0.24646424  0.70547192     0.08500
H420        H  0.05341282  0.29912291  0.69472871     0.12100
H421        H  0.43975120  0.25828429  0.68324362     0.12000
H422        H  0.45091019  0.30713793  0.66804601     0.11800
H423        H  0.48890939  0.35901889  0.65638794     0.12300
H424        H  0.06481114  0.34703596  0.67785074     0.14300
C425        C  0.21358669  0.50976872  0.64041569    -0.05800
C426        C  0.23007404  0.53852989  0.63106412    -0.05700
C427        C  0.26159789  0.55877091  0.63545736    -0.23900
C428        C  0.27699904  0.05036619  0.64916461     0.18400
C429        C  0.26074763  0.02109683  0.65824465     0.15600
C430        C  0.22921255  0.00104844  0.65382621    -0.18900
C431        C  0.27609321  0.01258787  0.67189107    -0.20700
C432        C  0.30711070  0.03339808  0.67699308    -0.13300
C433        C  0.32319068  0.06299125  0.66851084     0.03400
C434        C  0.30813547  0.07105036  0.65429039    -0.25400
H435        H  0.21841808  0.54567009  0.62070296     0.08500
H436        H  0.27378536  0.58114324  0.62835860     0.12100
H437        H  0.21675829  0.97872668  0.66098507     0.12000
H438        H  0.26390712  0.99014649  0.67891598     0.11800
H439        H  0.31815141  0.02669236  0.68802020     0.12300
H440        H  0.32029585  0.09377765  0.64758234     0.14300
C441        C  0.11412245  0.48911924  0.69634643    -0.05800
C442        C  0.14614960  0.50619693  0.70108429    -0.05700
C443        C  0.15665950  0.02680687  0.71652307    -0.23900
C444        C  0.13520025  0.03010550  0.72775380     0.18400
C445        C  0.10274849  0.01163132  0.72373077     0.15600
C446        C  0.09243459  0.49164108  0.70784405    -0.18900
C447        C  0.08123963  0.01398486  0.73544243    -0.20700
C448        C  0.09177208  0.03521494  0.75056798    -0.13300
C449        C  0.12396678  0.05493899  0.75399923     0.03400
C450        C  0.14562504  0.05199730  0.74267325    -0.25400
H451        H  0.16318638  0.50455176  0.69233074     0.08500
H452        H  0.18157646  0.04050105  0.71949579     0.12100
H453        H  0.06766395  0.47823923  0.70433365     0.12000
H454        H  0.05629391  0.99978056  0.73272241     0.11800
H455        H  0.07471403  0.03715822  0.75912090     0.12300
H456        H  0.17050896  0.06690716  0.74538136     0.14300
C457        C  0.49687055  0.13838231  0.73298141    -0.05800
C458        C  0.01903799  0.13687168  0.72147198    -0.05700
C459        C  0.04428051  0.13565097  0.72964497    -0.23900
C460        C  0.04725533  0.13528563  0.74943195     0.18400
C461        C  0.02507007  0.13675757  0.76119607     0.15600
C462        C  0.50018035  0.13880154  0.75286011    -0.18900
C463        C  0.02785497  0.13545064  0.78102232    -0.20700
C464        C  0.05250601  0.13264718  0.78907953    -0.13300
C465        C  0.07479745  0.13169114  0.77736959     0.03400
C466        C  0.07192620  0.13299427  0.75757383    -0.25400
H467        H  0.01675792  0.13653651  0.70614128     0.08500
H468        H  0.06116742  0.13446643  0.72051009     0.12100
H469        H  0.48279284  0.13950401  0.76178154     0.12000
H470        H  0.01091586  0.13636993  0.79023309     0.11800
H471        H  0.05439217  0.13165271  0.80437424     0.12300
H472        H  0.08871710  0.13169788  0.74838184     0.14300
C473        C  0.33943009  0.16666107  0.72371208    -0.05800
C474        C  0.31302212  0.16316019  0.71370874    -0.05700
C475        C  0.28777671  0.16156755  0.72353154    -0.23900
C476        C  0.28841776  0.16279268  0.74347065     0.18400
C477        C  0.31486160  0.16621507  0.75360238     0.15600
C478        C  0.34023158  0.16848590  0.74367291    -0.18900
C479        C  0.31528751  0.16665519  0.77352459    -0.20700
C480        C  0.28947873  0.16341626  0.78341220    -0.13300
C481        C  0.26309874  0.16013596  0.77350021     0.03400
C482        C  0.26285978  0.16007280  0.75347677    -0.25400
H483        H  0.31189607  0.16159923  0.69836217     0.08500
H484        H  0.26756867  0.15886333  0.71557276     0.12100
H485        H  0.36026880  0.17065441  0.75160310     0.12000
H486        H  0.33545458  0.16918525  0.78145213     0.11800
H487        H  0.29022311  0.16366690  0.79878268     0.12300
H488        H  0.24251508  0.15729194  0.74562554     0.14300
C489        C  0.35216777  0.40787956  0.06294767    -0.05800
C490        C  0.32624921  0.41169719  0.05917335    -0.05700
C491        C  0.32243928  0.43387633  0.06921215    -0.23900
C492        C  0.34403254  0.45176463  0.08353094     0.18400
C493        C  0.36991222  0.44759065  0.08758289     0.15600
C494        C  0.37406976  0.42598308  0.07704053    -0.18900
C495        C  0.39105706  0.46494313  0.10217978    -0.20700
C496        C  0.38733329  0.98718984  0.11221040    -0.13300
C497        C  0.36238061  0.99242545  0.10780951     0.03400
C498        C  0.34037736  0.47400222  0.09370262    -0.25400
H499        H  0.30892917  0.39738070  0.04853754     0.08500
H500        H  0.30241880  0.43672738  0.06597648     0.12100
H501        H  0.39361930  0.42232016  0.08027621     0.12000
H502        H  0.41082938  0.46176265  0.10557861     0.11800
H503        H  0.40468577  0.00110673  0.12292315     0.12300
H504        H  0.32100084  0.47772625  0.09008720     0.14300
C505        C  0.32787469  0.14828185  0.10837065    -0.05800
C506        C  0.32930679  0.17313923  0.11880579    -0.05700
C507        C  0.32922121  0.19806249  0.10946456    -0.23900
C508        C  0.32800072  0.19858559  0.08957433     0.18400
C509        C  0.32605935  0.17353350  0.07893992     0.15600
C510        C  0.32574631  0.14845208  0.08840338    -0.18900
C511        C  0.32514301  0.17431576  0.05902244    -0.20700
C512        C  0.32666888  0.20008280  0.04968544    -0.13300
C513        C  0.32899113  0.22528515  0.06017921     0.03400
C514        C  0.32927985  0.22408260  0.08016526    -0.25400
H515        H  0.33090796  0.17353101  0.13415811     0.08500
H516        H  0.33066445  0.21718215  0.11777708     0.12100
H517        H  0.32473599  0.12949346  0.08012257     0.12000
H518        H  0.32364512  0.15519997  0.05068338     0.11800
H519        H  0.32632067  0.20040806  0.03431862     0.12300
H520        H  0.33093814  0.24323879  0.08854982     0.14300
C521        C  0.99441305  0.38439905  0.14503244    -0.05800
C522        C  0.47099024  0.39245027  0.14743105    -0.05700
C523        C  0.44834481  0.38588189  0.13333941    -0.23900
C524        C  0.44892227  0.37162873  0.11634737     0.18400
C525        C  0.47261111  0.36380715  0.11353047     0.15600
C526        C  0.99493967  0.36975675  0.12803940    -0.18900
C527        C  0.47369750  0.35058919  0.09615494    -0.20700
C528        C  0.45179071  0.34553337  0.08171704    -0.13300
C529        C  0.42790667  0.35277128  0.08459543     0.03400
C530        C  0.42643080  0.36551800  0.10203499    -0.25400
H531        H  0.46985236  0.40345703  0.16043281     0.08500
H532        H  0.43046947  0.39216703  0.13569734     0.12100
H533        H  0.01298359  0.36359825  0.12597969     0.12000
H534        H  0.99170824  0.34455306  0.09363882     0.11800
H535        H  0.45329407  0.33567320  0.06833010     0.12300
H536        H  0.40833190  0.37157395  0.10422968     0.14300
C537        C  0.98654325  0.28046566  0.19782715    -0.05800
C538        C  0.45528651  0.26591606  0.20367421    -0.05700
C539        C  0.43425877  0.23497655  0.19831938    -0.23900
C540        C  0.44428656  0.21813722  0.18716483     0.18400
C541        C  0.47602908  0.23221316  0.18199513     0.15600
C542        C  0.99685653  0.26314698  0.18736590    -0.18900
C543        C  0.48627809  0.21549257  0.17101737    -0.20700
C544        C  0.46504196  0.18543660  0.16454585    -0.13300
C545        C  0.43313210  0.17149907  0.16893399     0.03400
C546        C  0.42305188  0.18784779  0.18064289    -0.25400
H547        H  0.44685454  0.27884041  0.21170529     0.08500
H548        H  0.41001184  0.22448592  0.20250395     0.12100
H549        H  0.02106255  0.27405938  0.18298169     0.12000
H550        H  0.01063430  0.22593773  0.16707207     0.11800
H551        H  0.47353205  0.17339652  0.15571965     0.12300
H552        H  0.39857187  0.17736821  0.18432095     0.14300
C553        C  0.13618566  0.46701169  0.16700799    -0.05800
C554        C  0.15154926  0.99795628  0.17371604    -0.05700
C555        C  0.18199819  0.01891877  0.16809837    -0.23900
C556        C  0.19752972  0.00924926  0.15568610     0.18400
C557        C  0.18172129  0.47871345  0.14803317     0.15600
C558        C  0.15110760  0.45782317  0.15368822    -0.18900
C559        C  0.19724215  0.46925762  0.13542521    -0.20700
C560        C  0.22867178  0.98942173  0.13114848    -0.13300
C561        C  0.24498411  0.01923215  0.13949155     0.03400
C562        C  0.22895729  0.02927000  0.15134321    -0.25400
H563        H  0.14051913  0.00563347  0.18390930     0.08500
H564        H  0.19374608  0.04238374  0.17393507     0.12100
H565        H  0.13932933  0.43411814  0.14820371     0.12000
H566        H  0.18534405  0.44600647  0.12928363     0.11800
H567        H  0.24046829  0.48134587  0.12181753     0.12300
H568        H  0.24114263  0.05249208  0.15754938     0.14300
C569        C  0.09153165  0.46576030  0.25373910    -0.05800
C570        C  0.12015848  0.49287821  0.24999796    -0.05700
C571        C  0.13629092  0.01516685  0.26432374    -0.23900
C572        C  0.12359722  0.01132533  0.28253721     0.18400
C573        C  0.09434725  0.98453874  0.28622338     0.15600
C574        C  0.07888428  0.46170084  0.27198094    -0.18900
C575        C  0.08084893  0.98114131  0.30405899    -0.20700
C576        C  0.09612982  0.00378244  0.31817979    -0.13300
C577        C  0.12565450  0.03021573  0.31504826     0.03400
C578        C  0.13937105  0.03376382  0.29707632    -0.25400
H579        H  0.13023546  0.49660940  0.23601293     0.08500
H580        H  0.15852634  0.03559615  0.26108202     0.12100
H581        H  0.05651246  0.44117187  0.27490584     0.12000
H582        H  0.05834868  0.96091383  0.30711308     0.11800
H583        H  0.08502631  0.00016556  0.33183059     0.12300
H584        H  0.16200172  0.05404411  0.29434876     0.14300
C585        C  0.37661383  0.36968264  0.42177433    -0.05800
C586        C  0.34605053  0.36418728  0.42450195    -0.05700
C587        C  0.32903483  0.36734877  0.40945832    -0.23900
C588        C  0.34251671  0.37659885  0.39152645     0.18400
C589        C  0.37361958  0.38310139  0.38882943     0.15600
C590        C  0.39028699  0.37922852  0.40388239    -0.18900
C591        C  0.38754369  0.39334211  0.37110446    -0.20700
C592        C  0.37081762  0.39705009  0.35615174    -0.13300
C593        C  0.33968733  0.38990928  0.35854704     0.03400
C594        C  0.32553155  0.37953287  0.37625005    -0.25400
H595        H  0.33500242  0.35665899  0.43817254     0.08500
H596        H  0.30532542  0.36247123  0.41183472     0.12100
H597        H  0.41395841  0.38379575  0.40170155     0.12000
H598        H  0.41138299  0.39855324  0.36881572     0.11800
H599        H  0.38201465  0.40494515  0.34254449     0.12300
H600        H  0.30158987  0.37429828  0.37818295     0.14300
C601        C  0.35687958  0.03371473  0.19302624    -0.05800
C602        C  0.38301707  0.03528109  0.20239160    -0.05700
C603        C  0.37926997  0.01650178  0.21819360    -0.23900
C604        C  0.34923472  0.99516198  0.22465896     0.18400
C605        C  0.32269717  0.99288278  0.21512669     0.15600
C606        C  0.32669369  0.01255997  0.19960667    -0.18900
C607        C  0.29263280  0.47062180  0.22111695    -0.20700
C608        C  0.28889924  0.45071927  0.23630888    -0.13300
C609        C  0.31510181  0.45325556  0.24614536     0.03400
C610        C  0.34527789  0.97576294  0.24031142    -0.25400
H611        H  0.40645365  0.05139509  0.19761857     0.08500
H612        H  0.39987910  0.01844544  0.22523886     0.12100
H613        H  0.30632781  0.01085602  0.19234406     0.12000
H614        H  0.27200254  0.46837233  0.21392398     0.11800
H615        H  0.26546300  0.43357970  0.24056847     0.12300
H616        H  0.36564327  0.97759819  0.24764997     0.14300
C617        C  0.46082333  0.39368207  0.22969388    -0.05800
C618        C  0.43693079  0.39193405  0.21787387    -0.05700
C619        C  0.40979948  0.38889411  0.22584998    -0.23900
C620        C  0.40694252  0.38848918  0.24565832     0.18400
C621        C  0.43140649  0.39094985  0.25757405     0.15600
C622        C  0.45797339  0.39304436  0.24947270    -0.18900
C623        C  0.42916376  0.39189695  0.27735386    -0.20700
C624        C  0.40304885  0.39115791  0.28529372    -0.13300
C625        C  0.37865876  0.38851321  0.27351308     0.03400
C626        C  0.38043744  0.38659515  0.25375603    -0.25400
H627        H  0.43904144  0.39229070  0.20258098     0.08500
H628        H  0.39125511  0.38721954  0.21658392     0.12100
H629        H  0.47681080  0.39480458  0.25853705     0.12000
H630        H  0.44787116  0.39392922  0.28661259     0.11800
H631        H  0.40190295  0.39275477  0.30056229     0.12300
H632        H  0.36180715  0.38513488  0.24463004     0.14300
C633        C  0.19315858  0.36241000  0.27737668    -0.05800
C634        C  0.17300088  0.36980513  0.28704453    -0.05700
C635        C  0.14910144  0.37140739  0.27719810    -0.23900
C636        C  0.14539890  0.36603936  0.25755436     0.18400
C637        C  0.16546160  0.35849026  0.24769046     0.15600
C638        C  0.18901364  0.35644121  0.25769967    -0.18900
C639        C  0.16199336  0.35372158  0.22795023    -0.20700
C640        C  0.13871505  0.35650667  0.21802791    -0.13300
C641        C  0.11855809  0.36373609  0.22782970     0.03400
C642        C  0.12214089  0.36849954  0.24759680    -0.25400
H643        H  0.17590304  0.37464355  0.30214414     0.08500
H644        H  0.13381257  0.37728697  0.28488152     0.12100
H645        H  0.20470597  0.35112187  0.25000010     0.12000
H646        H  0.17734723  0.34800538  0.22020898     0.11800
H647        H  0.13624178  0.35269059  0.20282489     0.12300
H648        H  0.10699174  0.37455024  0.25531923     0.14300
C649        C  0.24251074  0.27901075  0.30950188    -0.05800
C650        C  0.25869267  0.26392801  0.30350642    -0.05700
C651        C  0.24913771  0.23337869  0.30927932    -0.23900
C652        C  0.22309191  0.21734971  0.32101175     0.18400
C653        C  0.20593550  0.23185019  0.32655066     0.15600
C654        C  0.21577239  0.26256004  0.32079512    -0.18900
C655        C  0.17961041  0.21560569  0.33806253    -0.20700
C656        C  0.17082389  0.18549854  0.34445153    -0.13300
C657        C  0.18837874  0.17130043  0.33955320     0.03400
C658        C  0.21427887  0.18728686  0.32758125    -0.25400
H659        H  0.27929021  0.27606974  0.29481936     0.08500
H660        H  0.26242588  0.22247412  0.30482427     0.12100
H661        H  0.20282614  0.27379368  0.32534344     0.12000
H662        H  0.16610914  0.22636492  0.34235953     0.11800
H663        H  0.15084255  0.17368248  0.35364989     0.12300
H664        H  0.22783966  0.17645678  0.32351363     0.14300
C665        C  0.22523362  0.01931274  0.36312846    -0.05800
C666        C  0.21543783  0.99105376  0.37274394    -0.05700
C667        C  0.22732035  0.97160773  0.36781425    -0.23900
C668        C  0.24927392  0.98026156  0.35327868     0.18400
C669        C  0.25999962  0.00907529  0.34392611     0.15600
C670        C  0.24792523  0.02837759  0.34890937    -0.18900
C671        C  0.28206843  0.01776176  0.32945070    -0.20700
C672        C  0.29245775  0.49741644  0.32372333    -0.13300
C673        C  0.28096668  0.46816489  0.33244396     0.03400
C674        C  0.25998292  0.46016144  0.34758116    -0.25400
H675        H  0.19808004  0.98367140  0.38375682     0.08500
H676        H  0.21896023  0.94957703  0.37514511     0.12100
H677        H  0.25601448  0.05037219  0.34156234     0.12000
H678        H  0.29066394  0.03991803  0.32223406     0.11800
H679        H  0.30865006  0.50413685  0.31207903     0.12300
H680        H  0.25114154  0.43779977  0.35460081     0.14300
C681        C  0.36649485  0.07307130  0.75409560    -0.05800
C682        C  0.34641771  0.07814134  0.76571460    -0.05700
C683        C  0.33048400  0.05769029  0.78062805    -0.23900
C684        C  0.33483287  0.03215781  0.78449897     0.18400
C685        C  0.35512144  0.02700238  0.77295089     0.15600
C686        C  0.37033242  0.04711259  0.75770956    -0.18900
C687        C  0.36056609  0.00231180  0.77716016    -0.20700
C688        C  0.34672213  0.48334552  0.79290469    -0.13300
C689        C  0.32642619  0.48806722  0.80442924     0.03400
C690        C  0.32007695  0.51220959  0.79998593    -0.25400
H691        H  0.34300821  0.09792766  0.76324072     0.08500
H692        H  0.31518089  0.06218340  0.78935346     0.12100
H693        H  0.38604822  0.04312369  0.74903721     0.12000
H694        H  0.37615594  0.99810768  0.76851970     0.11800
H695        H  0.35193202  0.46493304  0.79617388     0.12300
H696        H  0.30478629  0.51624583  0.80903529     0.14300
C697        C  0.18117397  0.05723859  0.83480612    -0.05800
C698        C  0.16746777  0.02786177  0.82590389    -0.05700
C699        C  0.17762064  0.50676816  0.83045076    -0.23900
C700        C  0.20149263  0.01467336  0.84405218     0.18400
C701        C  0.21453297  0.04361108  0.85367589     0.15600
C702        C  0.20430208  0.06472153  0.84897918    -0.18900
C703        C  0.23817078  0.05125426  0.86744506    -0.20700
C704        C  0.24948218  0.03077376  0.87122492    -0.13300
C705        C  0.23744603  0.50249021  0.86118757     0.03400
C706        C  0.21303019  0.49439732  0.84784740    -0.25400
H707        H  0.14976021  0.02166964  0.81488261     0.08500
H708        H  0.16731511  0.48457918  0.82301613     0.12100
H709        H  0.21486842  0.08726317  0.85603351     0.12000
H710        H  0.24829076  0.07329395  0.87503115     0.11800
H711        H  0.26821624  0.03744000  0.88159407     0.12300
H712        H  0.20322354  0.47242668  0.84018435     0.14300
C713        C  0.21523507  0.24233037  0.80187071    -0.05800
C714        C  0.19727554  0.25591780  0.79614540    -0.05700
C715        C  0.20738187  0.28717271  0.80055663    -0.23900
C716        C  0.23557420  0.30513126  0.81068498     0.18400
C717        C  0.25456739  0.29204042  0.81544088     0.15600
C718        C  0.24434751  0.26087424  0.81093940    -0.18900
C719        C  0.28289786  0.30988852  0.82534701    -0.20700
C720        C  0.29166395  0.34003455  0.83139391    -0.13300
C721        C  0.27215826  0.35270163  0.82769305     0.03400
C722        C  0.24452923  0.33545476  0.81683155    -0.25400
H723        H  0.17485222  0.24204850  0.78902972     0.08500
H724        H  0.19269173  0.29696332  0.79662111     0.12100
H725        H  0.25866187  0.25073098  0.81508800     0.12000
H726        H  0.29778371  0.30017458  0.82894926     0.11800
H727        H  0.31307081  0.35292977  0.83966972     0.12300
H728        H  0.22954902  0.34524306  0.81367000     0.14300
C729        C  0.32652466  0.40364272  0.91346807    -0.05800
C730        C  0.32573293  0.37517814  0.91006733    -0.05700
C731        C  0.33027888  0.35889975  0.92499156    -0.23900
C732        C  0.33617918  0.37103815  0.94353562     0.18400
C733        C  0.33722350  0.39975270  0.94699803     0.15600
C734        C  0.33209219  0.41560567  0.93206118    -0.18900
C735        C  0.34373357  0.41243088  0.96533219    -0.20700
C736        C  0.34965230  0.39712913  0.98010606    -0.13300
C737        C  0.34871768  0.36854584  0.97697636     0.03400
C738        C  0.34150379  0.35532940  0.95863084    -0.25400
H739        H  0.32123245  0.36531634  0.89589718     0.08500
H740        H  0.32940111  0.33695113  0.92200399     0.12100
H741        H  0.33292835  0.43759478  0.93489847     0.12000
H742        H  0.34458602  0.43440019  0.96822356     0.11800
H743        H  0.35480988  0.40765697  0.99410995     0.12300
H744        H  0.34083001  0.33336410  0.95602376     0.14300
C745        C  0.00368488  0.16810192  0.02716928    -0.05800
C746        C  0.01680095  0.18477239  0.04415479    -0.05700
C747        C  0.00056334  0.17483710  0.06130202    -0.23900
C748        C  0.47048013  0.14842916  0.06176332     0.18400
C749        C  0.45689987  0.13192000  0.04466543     0.15600
C750        C  0.47369662  0.14149284  0.02763306    -0.18900
C751        C  0.42653678  0.10622484  0.04479087    -0.20700
C752        C  0.40967410  0.09695999  0.06158670    -0.13300
C753        C  0.42283192  0.11268830  0.07883763     0.03400
C754        C  0.45357159  0.13838280  0.07887583    -0.25400
H755        H  0.03987291  0.20533697  0.04421409     0.08500
H756        H  0.01143406  0.18799173  0.07416352     0.12100
H757        H  0.46310264  0.12864127  0.01462331     0.12000
H758        H  0.41568995  0.09333757  0.03184137     0.11800
H759        H  0.38624981  0.07690742  0.06111578     0.12300
H760        H  0.46398554  0.15080612  0.09202354     0.14300
C761        C  0.07029780  0.16021218  0.91401396    -0.05800
C762        C  0.05088459  0.14701758  0.89794854    -0.05700
C763        C  0.06195766  0.13958339  0.88182010    -0.23900
C764        C  0.09295045  0.14580904  0.88124259     0.18400
C765        C  0.11303963  0.15958116  0.89715408     0.15600
C766        C  0.10141529  0.16622713  0.91363336    -0.18900
C767        C  0.14442038  0.16679628  0.89611287    -0.20700
C768        C  0.15565406  0.16035528  0.87952651    -0.13300
C769        C  0.13554296  0.14593738  0.86386202     0.03400
C770        C  0.10416738  0.13870656  0.86489498    -0.25400
H771        H  0.02687635  0.14219768  0.89793215     0.08500
H772        H  0.04632426  0.12922422  0.86970925     0.12100
H773        H  0.11669282  0.17685066  0.92586454     0.12000
H774        H  0.16030345  0.17757361  0.90806565     0.11800
H775        H  0.17993663  0.16616005  0.87904826     0.12300
H776        H  0.08856600  0.12803668  0.85279056     0.14300
C777        C  0.38382584  0.02869263  0.89179332    -0.05800
C778        C  0.41195503  0.52805228  0.89376648    -0.05700
C779        C  0.43548207  0.04855599  0.90627565    -0.23900
C780        C  0.43122860  0.06996373  0.91703717     0.18400
C781        C  0.40338046  0.07133694  0.91478484     0.15600
C782        C  0.38003650  0.05089789  0.90213574    -0.18900
C783        C  0.39923894  0.09303368  0.92529510    -0.20700
C784        C  0.42294685  0.11391267  0.93751117    -0.13300
C785        C  0.45082741  0.11292663  0.93971785     0.03400
C786        C  0.45458160  0.09045746  0.92972300    -0.25400
H787        H  0.41531845  0.51092346  0.88618886     0.08500
H788        H  0.45678534  0.04733111  0.90775554     0.12100
H789        H  0.35843390  0.05162867  0.90086121     0.12000
H790        H  0.37799874  0.09435825  0.92372202     0.11800
H791        H  0.41988400  0.13142168  0.94486636     0.12300
H792        H  0.47641566  0.09015568  0.93096085     0.14300
C793        C  0.20335881  0.37476522  0.89783778    -0.05800
C794        C  0.21356982  0.36801125  0.91508843    -0.05700
C795        C  0.19232153  0.34627230  0.92769647    -0.23900
C796        C  0.16031058  0.33083938  0.92337303     0.18400
C797        C  0.14974826  0.33696311  0.90589628     0.15600
C798        C  0.17138160  0.35874590  0.89312685    -0.18900
C799        C  0.11769466  0.32129298  0.90156449    -0.20700
C800        C  0.09647369  0.29938269  0.91417580    -0.13300
C801        C  0.10678663  0.29292818  0.93146651     0.03400
C802        C  0.13875403  0.30911369  0.93614263    -0.25400
H803        H  0.23823103  0.37985386  0.91893662     0.08500
H804        H  0.20092916  0.34174016  0.94088778     0.12100
H805        H  0.16333511  0.36389893  0.87991727     0.12000
H806        H  0.10906231  0.32566608  0.88833451     0.11800
H807        H  0.07183199  0.28711178  0.91029733     0.12300
H808        H  0.14690601  0.30394607  0.94931168     0.14300
C809        C  0.43224504  0.31159807  0.00000523    -0.05800
C810        C  0.46170616  0.32504359  0.00904672    -0.05700
C811        C  0.48307291  0.31548413  0.00421116    -0.23900
C812        C  0.47527672  0.29263614  0.99014138     0.18400
C813        C  0.44631690  0.28039311  0.98026438     0.15600
C814        C  0.42496348  0.28986698  0.98532180    -0.18900
C815        C  0.43869346  0.25803540  0.96595811    -0.20700
C816        C  0.45905334  0.24693240  0.96193630    -0.13300
C817        C  0.98720952  0.25781661  0.97227825     0.03400
C818        C  0.99547909  0.28115057  0.98614361    -0.25400
H819        H  0.46752267  0.34170218  0.02050341     0.08500
H820        H  0.00526280  0.32527037  0.01182751     0.12100
H821        H  0.40225709  0.27964163  0.97824639     0.12000
H822        H  0.41669697  0.24865427  0.95815835     0.11800
H823        H  0.45230259  0.22911164  0.95110785     0.12300
H824        H  0.01740369  0.29006581  0.99398926     0.14300
C825        C  0.24293724  0.26638252  0.02751958    -0.05800
C826        C  0.22520636  0.27505672  0.03878273    -0.05700
C827        C  0.19345774  0.26352614  0.03466489    -0.23900
C828        C  0.17900288  0.24291989  0.01936182     0.18400
C829        C  0.19619994  0.23246473  0.00876875     0.15600
C830        C  0.22803676  0.24436560  0.01286412    -0.18900
C831        C  0.18156589  0.21118687  0.99378770    -0.20700
C832        C  0.15062138  0.20174046  0.98862633    -0.13300
C833        C  0.13421326  0.21380394  0.99822098     0.03400
C834        C  0.14810498  0.23364827  0.01392178    -0.25400
H835        H  0.23616119  0.29166610  0.05029425     0.08500
H836        H  0.18045256  0.27138942  0.04309627     0.12100
H837        H  0.24138210  0.23694690  0.00438044     0.12000
H838        H  0.19436051  0.20270417  0.98567352     0.11800
H839        H  0.14008874  0.18642421  0.97648533     0.12300
H840        H  0.13519544  0.24267036  0.02144040     0.14300
Fe841      Fe  0.06260860  0.73691716  0.98341246     1.65800
Fe842      Fe  0.02291238  0.70447902  0.94218154     1.73200
Fe843      Fe  0.04073549  0.66172888  0.97172731     1.54400
O844        O  0.08262275  0.68110324  0.98685055    -0.82200
O845        O  0.98145381  0.66561536  0.94818011    -0.80500
O846        O  0.10107712  0.73224908  0.98793770    -0.84700
O847        O  0.03955100  0.70795732  0.00658785    -0.79600
O848        O  0.06523073  0.66486374  0.94733341    -0.81300
O849        O  0.00434454  0.72993230  0.95349452    -0.84100
C850        C  0.02091241  0.67865202  0.00896912     0.96700
C851        C  0.10412571  0.70861758  0.99065255     1.04100
O852        O  0.04241889  0.70143706  0.96583067    -1.13100
O853        O  0.06219869  0.74415943  0.93447891    -0.75500
O854        O  0.08710684  0.76818066  0.96142160    -0.79000
O855        O  0.01636227  0.65812277  0.99637818    -0.79700
C856        C  0.08415666  0.76703979  0.94332546     0.95600
O857        O  0.02716957  0.74727727  0.98165328    -0.77600
O858        O  0.03915416  0.67912867  0.92719396    -0.82800
C859        C  0.47809442  0.63866046  0.94934277     0.98200
C860        C  0.05783812  0.66873375  0.93054459     1.04100
O861        O  0.99903673  0.63401119  0.95677522    -0.78500
C862        C  0.00749150  0.74430150  0.96892069     1.02400
Fe863      Fe  0.25497164  0.92685816  0.84637560     1.65800
Fe864      Fe  0.28986524  0.96115818  0.88838857     1.73200
Fe865      Fe  0.32922303  0.94232371  0.85733223     1.54400
O866        O  0.30726188  0.90175630  0.84147201    -0.82200
O867        O  0.33035713  0.00152657  0.88350555    -0.80500
O868        O  0.25737879  0.88838588  0.83854094    -0.84700
O869        O  0.28438607  0.95386582  0.82428316    -0.79600
O870        O  0.32472772  0.91530665  0.88079368    -0.81300
O871        O  0.26662556  0.98389463  0.87862247    -0.84100
C872        C  0.31407116  0.96908802  0.82175893     0.96700
C873        C  0.27945911  0.88282049  0.83625528     1.04100
O874        O  0.29108438  0.94334329  0.86387817    -1.13100
O875        O  0.24935563  0.92209578  0.89496549    -0.75500
O876        O  0.22420765  0.89919935  0.86783137    -0.79000
O877        O  0.33400219  0.96848762  0.83333175    -0.79700
C878        C  0.22667880  0.90015635  0.88596460     0.95600
O879        O  0.24559667  0.96206091  0.85090259    -0.77600
O880        O  0.31295566  0.94078037  0.90226900    -0.82800
C881        C  0.35661006  0.00329926  0.88166470     0.98200
C882        C  0.32105857  0.92077708  0.89790021     1.04100
O883        O  0.35936955  0.98235123  0.87292957    -0.78500
C884        C  0.25072306  0.98167896  0.86383344     1.02400
Fe885      Fe  0.26130238  0.87361544  0.32134119     1.65800
Fe886      Fe  0.28122308  0.86536094  0.27721762     1.73200
Fe887      Fe  0.33121632  0.92794653  0.30390788     1.54400
O888        O  0.30950476  0.95226158  0.31271505    -0.82200
O889        O  0.32613624  0.87526973  0.27264732    -0.80500
O890        O  0.27246456  0.91706994  0.33107390    -0.84700
O891        O  0.29372268  0.87277821  0.33978210    -0.79600
O892        O  0.33003068  0.94306059  0.27634716    -0.81300
O893        O  0.27295611  0.82518517  0.29137300    -0.84100
C894        C  0.32234934  0.89331991  0.34241150     0.96700
C895        C  0.28843952  0.94472382  0.32503227     1.04100
O896        O  0.29154978  0.88905832  0.30084324    -1.13100
O897        O  0.23472735  0.85228192  0.27820261    -0.75500
O898        O  0.22826624  0.87484137  0.30365653    -0.79000
O899        O  0.33717953  0.91665152  0.33148012    -0.79700
C900        C  0.22001494  0.86304428  0.28714768     0.95600
O901        O  0.24470605  0.82705244  0.31508764    -0.77600
O902        O  0.28876402  0.90401314  0.26147770    -0.82800
C903        C  0.35222236  0.89016749  0.28126341     0.98200
C904        C  0.31100503  0.93221521  0.26227509     1.04100
O905        O  0.35669152  0.90764870  0.29543475    -0.78500
C906        C  0.25409948  0.81225245  0.30494156     1.02400
Fe907      Fe  0.06157860  0.87346550  0.18230864     1.65800
Fe908      Fe  0.03510310  0.87181667  0.22721722     1.73200
Fe909      Fe  0.04724701  0.93121354  0.19719147     1.54400
O910        O  0.09022326  0.95295748  0.18434579    -0.82200
O911        O  0.99747853  0.87759686  0.22926175    -0.80500
O912        O  0.09690790  0.91514822  0.17256617    -0.84700
O913        O  0.02990675  0.87391237  0.16261783    -0.79600
O914        O  0.07074590  0.95228940  0.22238390    -0.81300
O915        O  0.00559530  0.82784765  0.21556653    -0.84100
C916        C  0.01757103  0.89115324  0.16058123     0.96700
C917        C  0.10582939  0.94374109  0.17495534     1.04100
O918        O  0.04799492  0.89224384  0.20225505    -1.13100
O919        O  0.07149358  0.86365267  0.22861424    -0.75500
O920        O  0.09413239  0.87140292  0.20041323    -0.79000
O921        O  0.02342428  0.91368086  0.17176351    -0.79700
C922        C  0.09326539  0.86620455  0.21815379     0.95600
O923        O  0.02888783  0.82839022  0.18869547    -0.77600
O924        O  0.06252477  0.91347604  0.24213778    -0.82800
C925        C  0.48887160  0.89549430  0.22199276     0.98200
C926        C  0.07408568  0.94244725  0.23848705     1.04100
O927        O  0.00417218  0.91559800  0.20944253    -0.78500
C928        C  0.00817864  0.81418389  0.20104588     1.02400
Fe929      Fe  0.33964711  0.59390353  0.15414884     1.65800
Fe930      Fe  0.33465162  0.56332624  0.11011481     1.73200
Fe931      Fe  0.39840752  0.58181288  0.13865462     1.54400
O932        O  0.41974374  0.62606428  0.15051217    -0.82200
O933        O  0.34057422  0.52523963  0.10968095    -0.80500
O934        O  0.38152691  0.63003683  0.16390479    -0.84700
O935        O  0.34155690  0.56326677  0.17355382    -0.79600
O936        O  0.41664782  0.60269134  0.11240115    -0.81300
O937        O  0.29168438  0.53559680  0.12229802    -0.84100
C938        C  0.36107619  0.55375367  0.17628711     0.96700
C939        C  0.41022359  0.64064856  0.16071590     1.04100
O940        O  0.35766350  0.57964533  0.13427685    -1.13100
O941        O  0.32677665  0.60026286  0.10766080    -0.75500
O942        O  0.33666519  0.62492163  0.13562552    -0.79000
O943        O  0.38397231  0.56058422  0.16523534    -0.79700
C944        C  0.33031426  0.62292498  0.11792011     0.95600
O945        O  0.29395414  0.56127795  0.14846554    -0.77600
O946        O  0.37420128  0.58782342  0.09409360    -0.82800
C947        C  0.36179202  0.51985386  0.11566082     0.98200
C948        C  0.40370744  0.60099116  0.09630112     1.04100
O949        O  0.38367806  0.53822212  0.12686551    -0.78500
C950        C  0.27881757  0.53979900  0.13649750     1.02400
Fe951      Fe  0.33809971  0.79045592  0.01363303     1.65800
Fe952      Fe  0.33416447  0.81545088  0.05795090     1.73200
Fe953      Fe  0.39349163  0.86225925  0.02964008     1.54400
O954        O  0.41486543  0.84441849  0.01273978    -0.82200
O955        O  0.33137044  0.85514141  0.05554812    -0.80500
O956        O  0.38037128  0.79429052  0.00820107    -0.84700
O957        O  0.34416460  0.82366681  0.99291642    -0.79600
O958        O  0.41506563  0.85435299  0.05238647    -0.81300
O959        O  0.28906911  0.79138108  0.04667642    -0.84100
C960        C  0.35575060  0.85334414  0.99300799     0.96700
C961        C  0.40777068  0.81728022  0.00725893     1.04100
O962        O  0.35504551  0.82243763  0.03360978    -1.13100
O963        O  0.33486299  0.77513567  0.06170849    -0.75500
O964        O  0.33056063  0.75485274  0.03275896    -0.79000
O965        O  0.37300200  0.87085826  0.00650448    -0.79700
C966        C  0.33159880  0.75330263  0.05084004     0.95600
O967        O  0.29319351  0.78147594  0.01646095    -0.77600
O968        O  0.37664387  0.83825578  0.07333911    -0.82800
C969        C  0.35445375  0.88235558  0.05414525     0.98200
C970        C  0.40519252  0.84799291  0.06923159     1.04100
O971        O  0.38000302  0.88784921  0.04668237    -0.78500
C972        C  0.27705706  0.78066145  0.03045866     1.02400
Fe973      Fe  0.20154317  0.65160273  0.82028595     1.65800
Fe974      Fe  0.17041587  0.64915287  0.77679012     1.73200
Fe975      Fe  0.12587576  0.59654880  0.80990726     1.54400
O976        O  0.14780838  0.57249848  0.81933999    -0.82200
O977        O  0.12517980  0.63946388  0.77459908    -0.80500
O978        O  0.19370257  0.60952389  0.83102817    -0.84700
O979        O  0.17508029  0.65583942  0.84143881    -0.79600
O980        O  0.11894799  0.57424761  0.78371258    -0.81300
O981        O  0.18289347  0.69298687  0.78710253    -0.84100
C982        C  0.14683428  0.63837136  0.84635779     0.96700
C983        C  0.17351254  0.58105863  0.82816713     1.04100
O984        O  0.16587701  0.63245595  0.80247057    -1.13100
O985        O  0.21635379  0.66145938  0.77423538    -0.75500
O986        O  0.23166630  0.64911000  0.80104610    -0.79000
O987        O  0.12746059  0.61467045  0.83668741    -0.79700
C988        C  0.23560074  0.65674364  0.78365604     0.95600
O989        O  0.21384482  0.69613462  0.81149244    -0.77600
O990        O  0.15829654  0.60627194  0.76505655    -0.82800
C991        C  0.10148677  0.62942842  0.78503780     0.98200
C992        C  0.13461787  0.57979908  0.76853999     1.04100
O993        O  0.10002495  0.61696238  0.80102094    -0.78500
C994        C  0.20320678  0.70852464  0.79989402     1.02400
Fe995      Fe  0.39769307  0.65719335  0.68075806     1.65800
Fe996      Fe  0.42313342  0.66246485  0.72591524     1.73200
Fe997      Fe  0.41350280  0.60260913  0.69838964     1.54400
O998        O  0.36855900  0.57869635  0.68766444    -0.82200
O999        O  0.45644708  0.65050276  0.73300823    -0.80500
O1000       O  0.36549248  0.61436349  0.66992742    -0.84700
O1001       O  0.43196064  0.65916150  0.66297324    -0.79600
O1002       O  0.39462864  0.58584491  0.72519132    -0.81300
O1003       O  0.45705201  0.70218887  0.71292809    -0.84100
C1004       C  0.44167456  0.63976408  0.66081014     0.96700
C1005       C  0.35439486  0.58654148  0.67563343     1.04100
O1006       O  0.41157328  0.64059674  0.70160087    -1.13100
O1007       O  0.39154538  0.67800891  0.72310571    -0.75500
O1008       O  0.36242915  0.65513343  0.69750901    -0.79000
O1009       O  0.43335649  0.61615471  0.67161183    -0.79700
C1010       C  0.36580930  0.66673698  0.71402429     0.95600
O1011       O  0.42785417  0.70284742  0.68864318    -0.77600
O1012       O  0.38962288  0.62328285  0.73977594    -0.82800
C1013       C  0.46918666  0.63742963  0.72436470     0.98200
C1014       C  0.38440373  0.59532179  0.73873332     1.04100
O1015       O  0.45836092  0.62271531  0.70892797    -0.78500
C1016       C  0.45212506  0.71609159  0.69923545     1.02400
Fe1017     Fe  0.39451555  0.79450822  0.48708238     1.65800
Fe1018     Fe  0.43261463  0.83193686  0.44714047     1.73200
Fe1019     Fe  0.41181745  0.86923541  0.47838028     1.54400
O1020       O  0.36986393  0.84610680  0.49260010    -0.82200
O1021       O  0.47289311  0.87102108  0.45492480    -0.80500
O1022       O  0.35422663  0.79557918  0.49101463    -0.84700
O1023       O  0.41558349  0.82175693  0.51141696    -0.79600
O1024       O  0.38665940  0.86634694  0.45433881    -0.81300
O1025       O  0.45308919  0.80662094  0.45726858    -0.84100
C1026       C  0.43272930  0.85106136  0.51471768     0.96700
C1027       C  0.34937486  0.81772310  0.49486700     1.04100
O1028       O  0.41285859  0.83156996  0.47096680    -1.13100
O1029       O  0.39368733  0.79275708  0.43791423    -0.75500
O1030       O  0.37199585  0.76470805  0.46400305    -0.79000
O1031       O  0.43614430  0.87201176  0.50280028    -0.79700
C1032       C  0.37304113  0.76836911  0.44601586     0.95600
O1033       O  0.43207718  0.78779542  0.48533304    -0.77600
O1034       O  0.41464382  0.85734272  0.43327158    -0.82800
C1035       C  0.47516844  0.89739975  0.45718475     0.98200
C1036       C  0.39364981  0.86424700  0.43736184     1.04100
O1037       O  0.45342076  0.90017510  0.46476678    -0.78500
C1038       C  0.45138571  0.79202487  0.47247200     1.02400
Fe1039     Fe  0.20493832  0.59462742  0.35312889     1.65800
Fe1040     Fe  0.17702508  0.55910711  0.39564598     1.73200
Fe1041     Fe  0.13369055  0.58033180  0.36870259     1.54400
O1042       O  0.15394347  0.62210259  0.35369105    -0.82200
O1043       O  0.13570393  0.51912016  0.39092765    -0.80500
O1044       O  0.20251037  0.63384482  0.34771405    -0.84700
O1045       O  0.17178287  0.56883170  0.33162698    -0.79600
O1046       O  0.14154050  0.60587035  0.39346213    -0.81300
O1047       O  0.19870629  0.53699773  0.38317879    -0.84100
C1048       C  0.14176682  0.55280341  0.33100491     0.96700
C1049       C  0.18099366  0.64058077  0.34743544     1.04100
O1050       O  0.17228332  0.57838807  0.37243629    -1.13100
O1051       O  0.21905737  0.59743276  0.40154514    -0.75500
O1052       O  0.23932177  0.62066254  0.37377013    -0.79000
O1053       O  0.12460815  0.55423065  0.34398388    -0.79700
C1054       C  0.24065632  0.61881498  0.39186563     0.95600
O1055       O  0.21413360  0.55884761  0.35499834    -0.77600
O1056       O  0.15561980  0.57831270  0.41226355    -0.82800
C1057       C  0.10948353  0.51778760  0.39071788     0.98200
C1058       C  0.14576207  0.59767256  0.40990125     1.04100
O1059       O  0.10578116  0.53967178  0.38401554    -0.78500
C1060       C  0.21176250  0.53940264  0.36742814     1.02400
Fe1061     Fe  0.12064012  0.93180276  0.65088721     1.65800
Fe1062     Fe  0.12193645  0.97189159  0.61147985     1.73200
Fe1063     Fe  0.06335536  0.94998300  0.64268510     1.54400
O1064       O  0.04468757  0.90787736  0.65665654    -0.82200
O1065       O  0.12239726  0.01171580  0.61945266    -0.80500
O1066       O  0.07925646  0.89177878  0.65476741    -0.84700
O1067       O  0.11572348  0.95305238  0.67510853    -0.79600
O1068       O  0.04070068  0.92631877  0.61807149    -0.81300
O1069       O  0.16735694  0.99184663  0.62174860    -0.84100
C1070       C  0.10400984  0.97045893  0.67871282     0.96700
C1071       C  0.05240598  0.88713938  0.65872519     1.04100
O1072       O  0.10206432  0.95099377  0.63504212    -1.13100
O1073       O  0.12306057  0.93355984  0.60176586    -0.75500
O1074       O  0.12740105  0.90980419  0.62774996    -0.79000
O1075       O  0.08511720  0.97351494  0.66749201    -0.79700
C1076       C  0.12614975  0.91216654  0.60975324     0.95600
O1077       O  0.16471807  0.96879096  0.64927014    -0.77600
O1078       O  0.07895083  0.95492498  0.59779816    -0.82800
C1079       C  0.09759281  0.01299710  0.62111295     0.98200
C1080       C  0.05042963  0.93548492  0.60134221     1.04100
O1081       O  0.07375361  0.99147304  0.62922680    -0.78500
C1082       C  0.17993573  0.98900075  0.63685774     1.02400
Fe1083     Fe  0.11776250  0.73813049  0.51844119     1.65800
Fe1084     Fe  0.12009289  0.70366707  0.55983465     1.73200
Fe1085     Fe  0.06119710  0.66399999  0.52849646     1.54400
O1086       O  0.04157751  0.68584524  0.51276743    -0.82200
O1087       O  0.12107307  0.66399538  0.55366988    -0.80500
O1088       O  0.07623965  0.73640738  0.51318067    -0.84700
O1089       O  0.11221956  0.70913105  0.49519781    -0.79600
O1090       O  0.03934332  0.66863471  0.55206509    -0.81300
O1091       O  0.16534559  0.72753724  0.54965856    -0.84100
C1092       C  0.10118992  0.67972629  0.49278753     0.96700
C1093       C  0.04914122  0.71403687  0.50969192     1.04100
O1094       O  0.09981353  0.70231318  0.53555677    -1.13100
O1095       O  0.12178366  0.74409773  0.56743419    -0.75500
O1096       O  0.12499501  0.76949928  0.54046530    -0.79000
O1097       O  0.08302689  0.65936364  0.50470583    -0.79700
C1098       C  0.12477638  0.76779195  0.55857163     0.95600
O1099       O  0.16206242  0.74566822  0.52132313    -0.77600
O1100       O  0.07695817  0.67984043  0.57384744    -0.82800
C1101       C  0.09723997  0.63758906  0.55118414     0.98200
C1102       C  0.04886041  0.67239307  0.56926987     1.04100
O1103       O  0.07217879  0.63423175  0.54368116    -0.78500
C1104       C  0.17755041  0.74171578  0.53436558     1.02400
C1105       C  0.09479005  0.53762050  0.61094835    -0.05800
C1106       C  0.06894136  0.54179314  0.61385682    -0.05700
C1107       C  0.06298878  0.56064219  0.60165119    -0.23900
C1108       C  0.08264674  0.57536131  0.58627062     0.18400
C1109       C  0.10897601  0.57166800  0.58339601     0.15600
C1110       C  0.11497329  0.55304672  0.59580899    -0.18900
C1111       C  0.12897246  0.58679582  0.56820216    -0.20700
C1112       C  0.12383825  0.60677781  0.55655546    -0.13300
C1113       C  0.09806864  0.61094015  0.55957133     0.03400
C1114       C  0.07701924  0.59451992  0.57406740    -0.25400
H1115       H  0.05281410  0.02975044  0.62524506     0.08500
H1116       H  0.04281983  0.56340342  0.60410097     0.12100
H1117       H  0.13466474  0.54955705  0.59316520     0.12000
H1118       H  0.14921668  0.58413958  0.56579832     0.11800
H1119       H  0.14061178  0.61995795  0.54566754     0.12300
H1120       H  0.05767744  0.59857427  0.57673778     0.14300
C1121       C  0.12771541  0.88884559  0.59741052    -0.05800
C1122       C  0.12480661  0.89019252  0.57754843    -0.05700
C1123       C  0.12460171  0.86735629  0.56583425    -0.23900
C1124       C  0.12724315  0.84270297  0.57374907     0.18400
C1125       C  0.13064010  0.84142438  0.59366044     0.15600
C1126       C  0.13096204  0.86447681  0.60532860    -0.18900
C1127       C  0.13315642  0.81681225  0.60165918    -0.20700
C1128       C  0.13174795  0.79334354  0.59010696    -0.13300
C1129       C  0.12788578  0.79400038  0.57027609     0.03400
C1130       C  0.12602786  0.81905240  0.56214611    -0.25400
H1131       H  0.12225403  0.90871652  0.57100962     0.08500
H1132       H  0.12199794  0.86878362  0.55062454     0.12100
H1133       H  0.13322792  0.86310940  0.62058217     0.12000
H1134       H  0.13584492  0.81549511  0.61687301     0.11800
H1135       H  0.13345597  0.77445531  0.59682340     0.12300
H1136       H  0.12298786  0.81982390  0.54692216     0.14300
C1137       C  0.11046995  0.66890189  0.47555038    -0.05800
C1138       C  0.12315648  0.68864533  0.45976026    -0.05700
C1139       C  0.13258529  0.67883233  0.44373915    -0.23900
C1140       C  0.13005754  0.64921881  0.44323574     0.18400
C1141       C  0.11799021  0.62941252  0.45915578     0.15600
C1142       C  0.10795923  0.63917269  0.47505100    -0.18900
C1143       C  0.11629616  0.60018937  0.45895937    -0.20700
C1144       C  0.12615810  0.59052531  0.44313305    -0.13300
C1145       C  0.13743769  0.60956642  0.42696944     0.03400
C1146       C  0.13933190  0.63903241  0.42713542    -0.25400
H1147       H  0.12561672  0.71170848  0.45973044     0.08500
H1148       H  0.14199393  0.69449741  0.43176324     0.12100
H1149       H  0.09875946  0.62381841  0.48718831     0.12000
H1150       H  0.10724904  0.58471973  0.47104845     0.11800
H1151       H  0.12416606  0.56765055  0.44334566     0.12300
H1152       H  0.14816067  0.65403506  0.41482377     0.14300
C1153       C  0.44990854  0.86166857  0.53306357    -0.05800
C1154       C  0.44295296  0.84130568  0.54856795    -0.05700
C1155       C  0.46000219  0.85191527  0.56566129    -0.23900
C1156       C  0.48452025  0.88292733  0.56741077     0.18400
C1157       C  0.49140859  0.90343614  0.55186120     0.15600
C1158       C  0.47401568  0.89281147  0.53499007    -0.18900
C1159       C  0.51609163  0.93421279  0.55318690    -0.20700
C1160       C  0.03453044  0.94446584  0.56957015    -0.13300
C1161       C  0.02842453  0.92432461  0.58506193     0.03400
C1162       C  0.50287576  0.89367619  0.58413698    -0.25400
H1163       H  0.42435298  0.81721761  0.54748624     0.08500
H1164       H  0.45432199  0.83578915  0.57738530     0.12100
H1165       H  0.47984705  0.90879797  0.52315938     0.12000
H1166       H  0.52156977  0.95019616  0.54139465     0.11800
H1167       H  0.05390947  0.96825950  0.57007259     0.12300
H1168       H  0.49819163  0.87798085  0.59600739     0.14300
C1169       C  0.08370067  0.49151831  0.40046232    -0.05800
C1170       C  0.08052735  0.46171224  0.39941299    -0.05700
C1171       C  0.05971392  0.43784949  0.41117710    -0.23900
C1172       C  0.04220422  0.94365863  0.42438803     0.18400
C1173       C  0.04525882  0.97361955  0.42560685     0.15600
C1174       C  0.06582812  0.99735270  0.41346800    -0.18900
C1175       C  0.52775788  0.97924087  0.43897506    -0.20700
C1176       C  0.50615133  0.95489172  0.45031412    -0.13300
C1177       C  0.50217189  0.92474961  0.44864811     0.03400
C1178       C  0.02118651  0.91970825  0.43609491    -0.25400
H1179       H  0.09465829  0.45711265  0.38972906     0.08500
H1180       H  0.05759705  0.41496876  0.41011010     0.12100
H1181       H  0.06901265  0.02066797  0.41471790     0.12000
H1182       H  0.53008345  0.00218334  0.44024684     0.11800
H1183       H  0.49174972  0.95935664  0.45983891     0.12300
H1184       H  0.01842997  0.89660691  0.43458045     0.14300
C1185       C  0.26768033  0.64268141  0.40280999    -0.05800
C1186       C  0.27451207  0.63492939  0.42083200    -0.05700
C1187       C  0.29656654  0.65788993  0.43286464    -0.23900
C1188       C  0.31216448  0.68910162  0.42713706     0.18400
C1189       C  0.30614058  0.69708252  0.40882737     0.15600
C1190       C  0.28409679  0.67376959  0.39669303    -0.18900
C1191       C  0.32178191  0.72834358  0.40313589    -0.20700
C1192       C  0.34330444  0.75139265  0.41538437    -0.13300
C1193       C  0.34942645  0.74366122  0.43360937     0.03400
C1194       C  0.33356437  0.71244483  0.43946550    -0.25400
H1195       H  0.26215440  0.61103771  0.42584182     0.08500
H1196       H  0.30097601  0.65129946  0.44677141     0.12100
H1197       H  0.27868989  0.67999197  0.38293759     0.12000
H1198       H  0.31738762  0.73497445  0.38923802     0.11800
H1199       H  0.35509892  0.77541876  0.41059855     0.12300
H1200       H  0.33823839  0.70627951  0.45344138     0.14300
C1201       C  0.47253953  0.77930359  0.47561676    -0.05800
C1202       C  0.50310170  0.79473848  0.46858114    -0.05700
C1203       C  0.02392879  0.78414813  0.47322854    -0.23900
C1204       C  0.51427987  0.75770100  0.48471861     0.18400
C1205       C  0.48308536  0.74114532  0.49107688     0.15600
C1206       C  0.46252528  0.75220057  0.48660444    -0.18900
C1207       C  0.47321352  0.71425101  0.50217610    -0.20700
C1208       C  0.49439328  0.70444117  0.50751395    -0.13300
C1209       C  0.02578227  0.72166004  0.50204338     0.03400
C1210       C  0.03546250  0.74797217  0.49036478    -0.25400
H1211       H  0.51119912  0.81562751  0.46008213     0.08500
H1212       H  0.04771719  0.79694446  0.46812233     0.12100
H1213       H  0.43878523  0.73991180  0.49185766     0.12000
H1214       H  0.44929935  0.70119163  0.50704807     0.11800
H1215       H  0.48659414  0.68420323  0.51658087     0.12300
H1216       H  0.05965301  0.76118488  0.48595488     0.14300
C1217       C  0.31869933  0.80979260  0.50240246    -0.05800
C1218       C  0.30470978  0.82774756  0.49771761    -0.05700
C1219       C  0.27452953  0.81861443  0.50383522    -0.23900
C1220       C  0.25827668  0.79171450  0.51494716     0.18400
C1221       C  0.27277786  0.77428798  0.52037776     0.15600
C1222       C  0.30278911  0.78330290  0.51391724    -0.18900
C1223       C  0.25676192  0.74778577  0.53184948    -0.20700
C1224       C  0.22608987  0.73790951  0.53731986    -0.13300
C1225       C  0.21105276  0.75420756  0.53114719     0.03400
C1226       C  0.22747569  0.78146727  0.52030929    -0.25400
H1227       H  0.31672502  0.84822729  0.48883763     0.08500
H1228       H  0.26373882  0.83228682  0.49965753     0.12100
H1229       H  0.31374991  0.76962663  0.51775947     0.12000
H1230       H  0.26770355  0.73434720  0.53623358     0.11800
H1231       H  0.21366370  0.71681011  0.54563514     0.12300
H1232       H  0.21598978  0.79431996  0.51570792     0.14300
C1233       C  0.02659895  0.66833535  0.58452308    -0.05800
C1234       C  0.50349416  0.67674036  0.58130965    -0.05700
C1235       C  0.48300353  0.67403690  0.59573485    -0.23900
C1236       C  0.48463586  0.66209893  0.61356631     0.18400
C1237       C  0.50746993  0.65310151  0.61686046     0.15600
C1238       C  0.02862372  0.65678949  0.60246925    -0.18900
C1239       C  0.50850112  0.64018880  0.63442667    -0.20700
C1240       C  0.48693168  0.63580026  0.64848200    -0.13300
C1241       C  0.46425750  0.64486874  0.64551551     0.03400
C1242       C  0.46356492  0.65851265  0.62804309    -0.25400
H1243       H  0.50164945  0.68597644  0.56767849     0.08500
H1244       H  0.46566973  0.68101066  0.59287152     0.12100
H1245       H  0.04622749  0.65007151  0.60509194     0.12000
H1246       H  0.02577236  0.63310784  0.63723057     0.11800
H1247       H  0.48821178  0.62556122  0.66185859     0.12300
H1248       H  0.44613485  0.66549057  0.62553990     0.14300
C1249       C  0.47490667  0.74871515  0.69501670    -0.05800
C1250       C  0.50697498  0.76065088  0.69854271    -0.05700
C1251       C  0.02865629  0.79052304  0.69229654    -0.23900
C1252       C  0.51840539  0.80879959  0.68264986     0.18400
C1253       C  0.48603798  0.79728428  0.67969733     0.15600
C1254       C  0.46456595  0.76733376  0.68585498    -0.18900
C1255       C  0.47568298  0.81568142  0.67035011    -0.20700
C1256       C  0.49731095  0.84522900  0.66373675    -0.13300
C1257       C  0.02951354  0.85649530  0.66617318     0.03400
C1258       C  0.03993816  0.83824934  0.67572743    -0.25400
H1259       H  0.51529587  0.74646407  0.70547175     0.08500
H1260       H  0.05341084  0.79912401  0.69473001     0.12100
H1261       H  0.43974949  0.75828370  0.68324283     0.12000
H1262       H  0.45090852  0.80713796  0.66804604     0.11800
H1263       H  0.48890791  0.85901909  0.65638824     0.12300
H1264       H  0.06480946  0.84703689  0.67785207     0.14300
C1265       C  0.21358625  0.00977013  0.64041815    -0.05800
C1266       C  0.23007215  0.03853333  0.63106858    -0.05700
C1267       C  0.26159568  0.05877492  0.63546219    -0.23900
C1268       C  0.27700010  0.55036359  0.64916142     0.18400
C1269       C  0.26074728  0.52109596  0.65824328     0.15600
C1270       C  0.22921202  0.50104819  0.65382516    -0.18900
C1271       C  0.27609159  0.51258820  0.67189126    -0.20700
C1272       C  0.30710912  0.53339818  0.67699323    -0.13300
C1273       C  0.32319045  0.56298990  0.66850932     0.03400
C1274       C  0.30813666  0.57104754  0.65428715    -0.25400
H1275       H  0.21841530  0.04567453  0.62070869     0.08500
H1276       H  0.27378207  0.08114865  0.62836491     0.12100
H1277       H  0.21675680  0.47872785  0.66098550     0.12000
H1278       H  0.26390440  0.49014807  0.67891752     0.11800
H1279       H  0.31814871  0.52669367  0.68802170     0.12300
H1280       H  0.32029820  0.59377368  0.64757776     0.14300
C1281       C  0.11412156  0.98911787  0.69634752    -0.05800
C1282       C  0.14614831  0.00619258  0.70108693    -0.05700
C1283       C  0.15666096  0.52681137  0.71652036    -0.23900
C1284       C  0.13520150  0.53010715  0.72775262     0.18400
C1285       C  0.10274955  0.51163002  0.72373116     0.15600
C1286       C  0.09243385  0.99164250  0.70784368    -0.18900
C1287       C  0.08124071  0.51398073  0.73544438    -0.20700
C1288       C  0.09177323  0.53521105  0.75056984    -0.13300
C1289       C  0.12396790  0.55493813  0.75399952     0.03400
C1290       C  0.14562626  0.55199911  0.74267202    -0.25400
H1291       H  0.16318503  0.00454531  0.69233451     0.08500
H1292       H  0.18157810  0.54050785  0.71949185     0.12100
H1293       H  0.06766343  0.97824291  0.70433209     0.12000
H1294       H  0.05629489  0.49977410  0.73272560     0.11800
H1295       H  0.07471502  0.53715211  0.75912394     0.12300
H1296       H  0.17051019  0.56691123  0.74537887     0.14300
C1297       C  0.49687111  0.63838247  0.73297982    -0.05800
C1298       C  0.01903926  0.63687332  0.72147060    -0.05700
C1299       C  0.04428203  0.63565292  0.72964355    -0.23900
C1300       C  0.04725679  0.63528727  0.74943053     0.18400
C1301       C  0.02507128  0.63675873  0.76119467     0.15600
C1302       C  0.50018109  0.63880175  0.75285849    -0.18900
C1303       C  0.02785590  0.63545126  0.78102089    -0.20700
C1304       C  0.05250682  0.63264766  0.78907810    -0.13300
C1305       C  0.07479848  0.63169197  0.77736820     0.03400
C1306       C  0.07192766  0.63299578  0.75757243    -0.25400
H1307       H  0.01675914  0.63653826  0.70613990     0.08500
H1308       H  0.06116907  0.63446867  0.72050863     0.12100
H1309       H  0.48279350  0.63950396  0.76177997     0.12000
H1310       H  0.01091656  0.63637013  0.79023168     0.11800
H1311       H  0.05439272  0.63165279  0.80437279     0.12300
H1312       H  0.08871878  0.63169971  0.74838050     0.14300
C1313       C  0.33942970  0.66666062  0.72371132    -0.05800
C1314       C  0.31302046  0.66315705  0.71370826    -0.05700
C1315       C  0.28777518  0.66156432  0.72353122    -0.23900
C1316       C  0.28841762  0.66279196  0.74347028     0.18400
C1317       C  0.31486283  0.66621734  0.75360175     0.15600
C1318       C  0.34023273  0.66848844  0.74367207    -0.18900
C1319       C  0.31529015  0.66665993  0.77352396    -0.20700
C1320       C  0.28948129  0.66342031  0.78341185    -0.13300
C1321       C  0.26309988  0.66013688  0.77350007     0.03400
C1322       C  0.26285962  0.66007149  0.75347664    -0.25400
H1323       H  0.31189318  0.66159379  0.69836176     0.08500
H1324       H  0.26756610  0.65885786  0.71557265     0.12100
H1325       H  0.36027100  0.67065924  0.75160212     0.12000
H1326       H  0.33545834  0.66919241  0.78145129     0.11800
H1327       H  0.29022671  0.66367289  0.79878230     0.12300
H1328       H  0.24251381  0.65728825  0.74562560     0.14300
C1329       C  0.35216478  0.90787762  0.06294866    -0.05800
C1330       C  0.32624481  0.91169354  0.05917567    -0.05700
C1331       C  0.32243632  0.93387431  0.06921368    -0.23900
C1332       C  0.34403258  0.95176601  0.08353036     0.18400
C1333       C  0.36991363  0.94759367  0.08758093     0.15600
C1334       C  0.37406967  0.92598456  0.07703930    -0.18900
C1335       C  0.39106139  0.96494911  0.10217587    -0.20700
C1336       C  0.38732766  0.48718277  0.11221474    -0.13300
C1337       C  0.36237638  0.49241997  0.10781249     0.03400
C1338       C  0.34037894  0.97400513  0.09370145    -0.25400
H1339       H  0.30892275  0.89737471  0.04854143     0.08500
H1340       H  0.30241472  0.93672400  0.06597909     0.12100
H1341       H  0.39362045  0.92232319  0.08027394     0.12000
H1342       H  0.41083472  0.96176982  0.10557360     0.11800
H1343       H  0.40467812  0.50109768  0.12292894     0.12300
H1344       H  0.32100113  0.97772775  0.09008728     0.14300
C1345       C  0.32787688  0.64828025  0.10836848    -0.05800
C1346       C  0.32930794  0.67313691  0.11880395    -0.05700
C1347       C  0.32922146  0.69805997  0.10946310    -0.23900
C1348       C  0.32800070  0.69858351  0.08957293     0.18400
C1349       C  0.32606050  0.67353227  0.07893815     0.15600
C1350       C  0.32574887  0.64845117  0.08840122    -0.18900
C1351       C  0.32514348  0.67431488  0.05902069    -0.20700
C1352       C  0.32666761  0.70008149  0.04968410    -0.13300
C1353       C  0.32898880  0.72528305  0.06017827     0.03400
C1354       C  0.32927817  0.72408009  0.08016429    -0.25400
H1355       H  0.33090885  0.67352827  0.13415628     0.08500
H1356       H  0.33066386  0.71717903  0.11777589     0.12100
H1357       H  0.32473913  0.62949305  0.08012018     0.12000
H1358       H  0.32364636  0.65519973  0.05068133     0.11800
H1359       H  0.32631905  0.70040713  0.03431731     0.12300
H1360       H  0.33093575  0.74323566  0.08854915     0.14300
C1361       C  0.99441533  0.88440403  0.14503192    -0.05800
C1362       C  0.47099537  0.89245789  0.14742936    -0.05700
C1363       C  0.44834872  0.88588820  0.13333836    -0.23900
C1364       C  0.44892173  0.87162904  0.11634789     0.18400
C1365       C  0.47260756  0.86380295  0.11353179     0.15600
C1366       C  0.99493793  0.86975652  0.12804018    -0.18900
C1367       C  0.47368947  0.85057875  0.09615770    -0.20700
C1368       C  0.45178161  0.84552177  0.08172027    -0.13300
C1369       C  0.42790095  0.85276477  0.08459783     0.03400
C1370       C  0.42642905  0.86551708  0.10203612    -0.25400
H1371       H  0.46986045  0.90346897  0.16042995     0.08500
H1372       H  0.43047575  0.89217690  0.13569563     0.12100
H1373       H  0.01297971  0.86359491  0.12598092     0.12000
H1374       H  0.99169833  0.84454171  0.09364225     0.11800
H1375       H  0.45328182  0.83565734  0.06833424     0.12300
H1376       H  0.40833278  0.87157701  0.10423002     0.14300
C1377       C  0.98654019  0.78046541  0.19782517    -0.05800
C1378       C  0.45528287  0.76591840  0.20366922    -0.05700
C1379       C  0.43425450  0.73497927  0.19831413    -0.23900
C1380       C  0.44428314  0.71813752  0.18716259     0.18400
C1381       C  0.47602696  0.73221069  0.18199609     0.15600
C1382       C  0.99685427  0.76314498  0.18736649    -0.18900
C1383       C  0.48627662  0.71548732  0.17102154    -0.20700
C1384       C  0.46504014  0.68543142  0.16454997    -0.13300
C1385       C  0.43312921  0.67149676  0.16893486     0.03400
C1386       C  0.42304815  0.68784830  0.18064057    -0.25400
H1387       H  0.44685052  0.77884475  0.21169786     0.08500
H1388       H  0.41000656  0.72449079  0.20249619     0.12100
H1389       H  0.02106112  0.77405615  0.18298413     0.12000
H1390       H  0.01063330  0.72593135  0.16707802     0.11800
H1391       H  0.47353088  0.67338907  0.15572633     0.12300
H1392       H  0.39856727  0.67737097  0.18431614     0.14300
C1393       C  0.13619003  0.96700937  0.16700826    -0.05800
C1394       C  0.15154737  0.49795692  0.17371867    -0.05700
C1395       C  0.18199670  0.51891902  0.16810141    -0.23900
C1396       C  0.19752632  0.50925075  0.15568673     0.18400
C1397       C  0.18172726  0.97870977  0.14803565     0.15600
C1398       C  0.15111411  0.95781905  0.15369119    -0.18900
C1399       C  0.19724995  0.96925255  0.13543009    -0.20700
C1400       C  0.22866464  0.48942562  0.13114436    -0.13300
C1401       C  0.24497958  0.51923347  0.13949057     0.03400
C1402       C  0.22895457  0.52927033  0.15134459    -0.25400
H1403       H  0.14051900  0.50563278  0.18391404     0.08500
H1404       H  0.19374652  0.54238238  0.17394046     0.12100
H1405       H  0.13933773  0.93411262  0.14820896     0.12000
H1406       H  0.18535383  0.94599965  0.12929095     0.11800
H1407       H  0.24047699  0.98134114  0.12182356     0.12300
H1408       H  0.24114181  0.55249050  0.15755325     0.14300
C1409       C  0.09153040  0.96576048  0.25373895    -0.05800
C1410       C  0.12017018  0.99286592  0.25000243    -0.05700
C1411       C  0.13627789  0.51518155  0.26431829    -0.23900
C1412       C  0.12359515  0.51132963  0.28253570     0.18400
C1413       C  0.09435799  0.48452973  0.28622701     0.15600
C1414       C  0.07887132  0.96171179  0.27197663    -0.18900
C1415       C  0.08086940  0.48112142  0.30406689    -0.20700
C1416       C  0.09614719  0.50376542  0.31818661    -0.13300
C1417       C  0.12565954  0.53021232  0.31504961     0.03400
C1418       C  0.13936689  0.53377094  0.29707370    -0.25400
H1419       H  0.13025622  0.99658868  0.23602046     0.08500
H1420       H  0.15850320  0.53562098  0.26107268     0.12100
H1421       H  0.05648982  0.94119272  0.27489764     0.12000
H1422       H  0.05837893  0.46088348  0.30712505     0.11800
H1423       H  0.08505186  0.50014061  0.33184076     0.12300
H1424       H  0.16198806  0.55406179  0.29434218     0.14300
C1425       C  0.37661379  0.86968177  0.42177452    -0.05800
C1426       C  0.34605114  0.86418831  0.42450205    -0.05700
C1427       C  0.32903597  0.86735022  0.40945825    -0.23900
C1428       C  0.34251772  0.87659871  0.39152624     0.18400
C1429       C  0.37361986  0.88309908  0.38882921     0.15600
C1430       C  0.39028674  0.87922588  0.40388237    -0.18900
C1431       C  0.38754384  0.89333813  0.37110404    -0.20700
C1432       C  0.37081837  0.89704671  0.35615117    -0.13300
C1433       C  0.33968880  0.88990822  0.35854655     0.03400
C1434       C  0.32553311  0.87953334  0.37624973    -0.25400
H1435       H  0.33500312  0.85666141  0.43817277     0.08500
H1436       H  0.30532713  0.86247435  0.41183466     0.12100
H1437       H  0.41395763  0.88379159  0.40170150     0.12000
H1438       H  0.41138257  0.89854754  0.36881527     0.11800
H1439       H  0.38201527  0.90494049  0.34254378     0.12300
H1440       H  0.30159204  0.87430056  0.37818268     0.14300
C1441       C  0.35687501  0.53371268  0.19302787    -0.05800
C1442       C  0.38301244  0.53527926  0.20239336    -0.05700
C1443       C  0.37926525  0.51649922  0.21819490    -0.23900
C1444       C  0.34922998  0.49515846  0.22465964     0.18400
C1445       C  0.32269236  0.49287922  0.21512741     0.15600
C1446       C  0.32668896  0.51255733  0.19960785    -0.18900
C1447       C  0.29263757  0.97062648  0.22111673    -0.20700
C1448       C  0.28890377  0.95072494  0.23630923    -0.13300
C1449       C  0.31510613  0.95326096  0.24614579     0.03400
C1450       C  0.34527335  0.47575854  0.24031147    -0.25400
H1451       H  0.40644908  0.55139379  0.19762065     0.08500
H1452       H  0.39987439  0.51844295  0.22524018     0.12100
H1453       H  0.30632317  0.51085332  0.19234509     0.12000
H1454       H  0.27200739  0.96837709  0.21392370     0.11800
H1455       H  0.26546742  0.93358612  0.24056911     0.12300
H1456       H  0.36563891  0.47759407  0.24764998     0.14300
C1457       C  0.46082440  0.89368621  0.22969134    -0.05800
C1458       C  0.43693591  0.89194741  0.21787139    -0.05700
C1459       C  0.40980571  0.88891027  0.22584748    -0.23900
C1460       C  0.40694612  0.88849905  0.24565582     0.18400
C1461       C  0.43140647  0.89095101  0.25757153     0.15600
C1462       C  0.45797200  0.89304264  0.24947009    -0.18900
C1463       C  0.42916153  0.89189209  0.27735149    -0.20700
C1464       C  0.40304763  0.89115464  0.28529169    -0.13300
C1465       C  0.37866071  0.88851752  0.27351108     0.03400
C1466       C  0.38044193  0.88660665  0.25375374    -0.25400
H1467       H  0.43904874  0.89230901  0.20257854     0.08500
H1468       H  0.39126423  0.88724259  0.21658147     0.12100
H1469       H  0.47680653  0.89479601  0.25853438     0.12000
H1470       H  0.44786630  0.89391788  0.28661019     0.11800
H1471       H  0.40189967  0.89274611  0.30056050     0.12300
H1472       H  0.36181407  0.88515255  0.24462794     0.14300
C1473       C  0.19315492  0.86240521  0.27737797    -0.05800
C1474       C  0.17299982  0.86980389  0.28704592    -0.05700
C1475       C  0.14909957  0.87140561  0.27720005    -0.23900
C1476       C  0.14539359  0.86603357  0.25755672     0.18400
C1477       C  0.16545249  0.85847914  0.24769295     0.15600
C1478       C  0.18900497  0.85643017  0.25770167    -0.18900
C1479       C  0.16198096  0.85370628  0.22795313    -0.20700
C1480       C  0.13870399  0.85649373  0.21803091    -0.13300
C1481       C  0.11855145  0.86372964  0.22783240     0.03400
C1482       C  0.12213660  0.86849586  0.24759928    -0.25400
H1483       H  0.17590540  0.87464667  0.30214499     0.08500
H1484       H  0.13381345  0.87728896  0.28488345     0.12100
H1485       H  0.20469448  0.85110708  0.25000194     0.12000
H1486       H  0.17733174  0.84798569  0.22021200     0.11800
H1487       H  0.13622863  0.85267489  0.20282818     0.12300
H1488       H  0.10699059  0.87455095  0.25532157     0.14300
C1489       C  0.24251152  0.77901167  0.30949913    -0.05800
C1490       C  0.25869470  0.76392958  0.30350491    -0.05700
C1491       C  0.24913965  0.73338031  0.30927807    -0.23900
C1492       C  0.22309241  0.71735072  0.32100940     0.18400
C1493       C  0.20593452  0.73185039  0.32654679     0.15600
C1494       C  0.21577159  0.76256022  0.32079106    -0.18900
C1495       C  0.17960799  0.71560517  0.33805750    -0.20700
C1496       C  0.17082156  0.68549825  0.34444702    -0.13300
C1497       C  0.18837798  0.67130106  0.33955035     0.03400
C1498       C  0.21427945  0.68728814  0.32757939    -0.25400
H1499       H  0.27929348  0.77607195  0.29481891     0.08500
H1500       H  0.26242900  0.72247637  0.30482421     0.12100
H1501       H  0.20282436  0.77379341  0.32533834     0.12000
H1502       H  0.16610552  0.72636379  0.34235330     0.11800
H1503       H  0.15083919  0.67368174  0.35364454     0.12300
H1504       H  0.22784156  0.67645883  0.32351300     0.14300
C1505       C  0.22523588  0.51931634  0.36312658    -0.05800
C1506       C  0.21544482  0.49106047  0.37274480    -0.05700
C1507       C  0.22732692  0.47161408  0.36781514    -0.23900
C1508       C  0.24927542  0.48026443  0.35327682     0.18400
C1509       C  0.25999603  0.50907485  0.34392112     0.15600
C1510       C  0.24792200  0.52837744  0.34890434    -0.18900
C1511       C  0.28205967  0.51775782  0.32944289    -0.20700
C1512       C  0.29246612  0.99742042  0.32373035    -0.13300
C1513       C  0.28096951  0.96816546  0.33244739     0.03400
C1514       C  0.25998123  0.96015876  0.34758238    -0.25400
H1515       H  0.19809121  0.48368086  0.38376007     0.08500
H1516       H  0.21897069  0.44958593  0.37514835     0.12100
H1517       H  0.25600753  0.55036954  0.34155493     0.12000
H1518       H  0.29065107  0.53991147  0.32222368     0.11800
H1519       H  0.30866241  0.00414364  0.31208803     0.12300
H1520       H  0.25113579  0.93779457  0.35459951     0.14300
C1521       C  0.36649492  0.57307072  0.75409449    -0.05800
C1522       C  0.34641893  0.57814165  0.76571402    -0.05700
C1523       C  0.33048520  0.55769069  0.78062748    -0.23900
C1524       C  0.33483289  0.53215733  0.78449784     0.18400
C1525       C  0.35512025  0.52700096  0.77294920     0.15600
C1526       C  0.37033134  0.54711119  0.75770792    -0.18900
C1527       C  0.36056359  0.50230936  0.77715785    -0.20700
C1528       C  0.34672460  0.98334796  0.79290700    -0.13300
C1529       C  0.32642731  0.98806855  0.80443096     0.03400
C1530       C  0.32007689  0.01220997  0.79998705    -0.25400
H1531       H  0.34301035  0.59792863  0.76324055     0.08500
H1532       H  0.31518304  0.56218451  0.78935331     0.12100
H1533       H  0.38604627  0.54312161  0.74903518     0.12000
H1534       H  0.37615245  0.49810447  0.76851692     0.11800
H1535       H  0.35193542  0.96493622  0.79617660     0.12300
H1536       H  0.30478516  0.01624540  0.80903594     0.14300
C1537       C  0.18117219  0.55723720  0.83480751    -0.05800
C1538       C  0.16746368  0.52785924  0.82590650    -0.05700
C1539       C  0.17762510  0.00677106  0.83044816    -0.23900
C1540       C  0.20149017  0.51467120  0.84405346     0.18400
C1541       C  0.21453241  0.54360988  0.85367625     0.15600
C1542       C  0.20430179  0.56472061  0.84897965    -0.18900
C1543       C  0.23817207  0.55125385  0.86744423    -0.20700
C1544       C  0.24948368  0.53077340  0.87122363    -0.13300
C1545       C  0.23744606  0.00249133  0.86118816     0.03400
C1546       C  0.21303228  0.99439942  0.84784664    -0.25400
H1547       H  0.14975482  0.52166661  0.81488603     0.08500
H1548       H  0.16732124  0.98458292  0.82301274     0.12100
H1549       H  0.21486978  0.58726299  0.85603316     0.12000
H1550       H  0.24829341  0.57329421  0.87502965     0.11800
H1551       H  0.26821922  0.53744035  0.88159182     0.12300
H1552       H  0.20322687  0.97242950  0.84018297     0.14300
C1553       C  0.21523690  0.74233081  0.80187170    -0.05800
C1554       C  0.19727991  0.75591979  0.79614387    -0.05700
C1555       C  0.20738641  0.78717481  0.80055503    -0.23900
C1556       C  0.23557637  0.80513201  0.81068591     0.18400
C1557       C  0.25456720  0.79203961  0.81544451     0.15600
C1558       C  0.24434722  0.76087341  0.81094305    -0.18900
C1559       C  0.28289547  0.80988632  0.82535304    -0.20700
C1560       C  0.29166159  0.84003251  0.83139955    -0.13300
C1561       C  0.27215818  0.85270131  0.82769587     0.03400
C1562       C  0.24453141  0.83545575  0.81683214    -0.25400
H1563       H  0.17485827  0.74205164  0.78902610     0.08500
H1564       H  0.19269818  0.79696663  0.79661734     0.12100
H1565       H  0.25865990  0.75072919  0.81509363     0.12000
H1566       H  0.29777960  0.80017119  0.82895733     0.11800
H1567       H  0.31306662  0.85292660  0.83967716     0.12300
H1568       H  0.22955302  0.84524537  0.81366843     0.14300
C1569       C  0.32652367  0.90364468  0.91347096    -0.05800
C1570       C  0.32572879  0.87517855  0.91007052    -0.05700
C1571       C  0.33027478  0.85890022  0.92499471    -0.23900
C1572       C  0.33617836  0.87104024  0.94353838     0.18400
C1573       C  0.33722588  0.89975637  0.94700053     0.15600
C1574       C  0.33209434  0.91560929  0.93206373    -0.18900
C1575       C  0.34373942  0.91243607  0.96533435    -0.20700
C1576       C  0.34965805  0.89713399  0.98010809    -0.13300
C1577       C  0.34872002  0.86854903  0.97697857     0.03400
C1578       C  0.34150305  0.85533141  0.95863342    -0.25400
H1579       H  0.32122568  0.86531549  0.89590064     0.08500
H1580       H  0.32939450  0.83695035  0.92200742     0.12100
H1581       H  0.33293291  0.93759961  0.93490070     0.12000
H1582       H  0.34459453  0.93440668  0.96822554     0.11800
H1583       H  0.35481808  0.90766287  0.99411174     0.12300
H1584       H  0.34082666  0.83336481  0.95602648     0.14300
C1585       C  0.00368295  0.66809958  0.02716987    -0.05800
C1586       C  0.01679553  0.68477477  0.04415446    -0.05700
C1587       C  0.00055836  0.67483925  0.06130184    -0.23900
C1588       C  0.47047885  0.64842609  0.06176437     0.18400
C1589       C  0.45690219  0.63191134  0.04466756     0.15600
C1590       C  0.47369847  0.64148483  0.02763497    -0.18900
C1591       C  0.42654284  0.60621001  0.04479420    -0.20700
C1592       C  0.40968003  0.59694510  0.06159001    -0.13300
C1593       C  0.42283405  0.61267961  0.07883980     0.03400
C1594       C  0.45357041  0.63837985  0.07887697    -0.25400
H1595       H  0.03986446  0.70534356  0.04421298     0.08500
H1596       H  0.01142639  0.68799792  0.07416254     0.12100
H1597       H  0.46310702  0.62862909  0.01462611     0.12000
H1598       H  0.41569882  0.59331820  0.03184558     0.11800
H1599       H  0.38625844  0.57688811  0.06111998     0.12300
H1600       H  0.46398144  0.65080797  0.09202379     0.14300
C1601       C  0.07029813  0.66021571  0.91401310    -0.05800
C1602       C  0.05088705  0.64702694  0.89794618    -0.05700
C1603       C  0.06196074  0.63959435  0.88181741    -0.23900
C1604       C  0.09295206  0.64581545  0.88124109     0.18400
C1605       C  0.11303944  0.65958215  0.89715397     0.15600
C1606       C  0.10141445  0.66622686  0.91363350    -0.18900
C1607       C  0.14441897  0.66679278  0.89611393    -0.20700
C1608       C  0.15565297  0.66035214  0.87952754    -0.13300
C1609       C  0.13554331  0.64593906  0.86386177     0.03400
C1610       C  0.10416916  0.63871335  0.86489341    -0.25400
H1611       H  0.02687984  0.64221014  0.89792884     0.08500
H1612       H  0.04632883  0.62923958  0.86970545     0.12100
H1613       H  0.11669056  0.67684608  0.92586579     0.12000
H1614       H  0.16030078  0.67756603  0.90806774     0.11800
H1615       H  0.17993447  0.66615302  0.87905032     0.12300
H1616       H  0.08856902  0.62804737  0.85278799     0.14300
C1617       C  0.38382581  0.52868923  0.89179367    -0.05800
C1618       C  0.41195536  0.02805606  0.89376528    -0.05700
C1619       C  0.43548100  0.54855182  0.90627742    -0.23900
C1620       C  0.43122709  0.56995965  0.91703860     0.18400
C1621       C  0.40337887  0.57133257  0.91478584     0.15600
C1622       C  0.38003564  0.55089377  0.90213632    -0.18900
C1623       C  0.39923678  0.59302922  0.92529582    -0.20700
C1624       C  0.42294464  0.61390909  0.93751158    -0.13300
C1625       C  0.45082559  0.61292387  0.93971836     0.03400
C1626       C  0.45457994  0.59045410  0.92972426    -0.25400
H1627       H  0.41531826  0.01092688  0.88618772     0.08500
H1628       H  0.45678423  0.54732696  0.90775773     0.12100
H1629       H  0.35843312  0.55162464  0.90086132     0.12000
H1630       H  0.37799638  0.59435336  0.92372249     0.11800
H1631       H  0.41988151  0.63141828  0.94486634     0.12300
H1632       H  0.47641412  0.59015265  0.93096236     0.14300
C1633       C  0.20335738  0.87476416  0.89783801    -0.05800
C1634       C  0.21356853  0.86800907  0.91508822    -0.05700
C1635       C  0.19232026  0.84626988  0.92769619    -0.23900
C1636       C  0.16030917  0.83083789  0.92337315     0.18400
C1637       C  0.14974671  0.83696254  0.90589675     0.15600
C1638       C  0.17138003  0.85874552  0.89312735    -0.18900
C1639       C  0.11769297  0.82129328  0.90156533    -0.20700
C1640       C  0.09647196  0.79938315  0.91417674    -0.13300
C1641       C  0.10678498  0.79292783  0.93146716     0.03400
C1642       C  0.13875261  0.80911230  0.93614283    -0.25400
H1643       H  0.23822983  0.87985112  0.91893617     0.08500
H1644       H  0.20092800  0.84173695  0.94088720     0.12100
H1645       H  0.16333343  0.86389937  0.87991811     0.12000
H1646       H  0.10906051  0.82566702  0.88833562     0.11800
H1647       H  0.07183012  0.78711308  0.91029857     0.12300
H1648       H  0.14690469  0.80394407  0.94931161     0.14300
C1649       C  0.43224510  0.81159882  0.00000727    -0.05800
C1650       C  0.46170451  0.82504075  0.00905063    -0.05700
C1651       C  0.48307084  0.81548077  0.00421504    -0.23900
C1652       C  0.47527579  0.79263578  0.99014341     0.18400
C1653       C  0.44631797  0.78039674  0.98026456     0.15600
C1654       C  0.42496501  0.78987120  0.98532196    -0.18900
C1655       C  0.43869569  0.75804197  0.96595657    -0.20700
C1656       C  0.45905443  0.74693752  0.96193496    -0.13300
C1657       C  0.98720889  0.75781782  0.97227903     0.03400
C1658       C  0.99547729  0.78114865  0.98614644    -0.25400
H1659       H  0.46751980  0.84169669  0.02050878     0.08500
H1660       H  0.00525880  0.82526243  0.01183434     0.12100
H1661       H  0.40225997  0.77964875  0.97824514     0.12000
H1662       H  0.41670083  0.74866405  0.95815534     0.11800
H1663       H  0.45230444  0.72911898  0.95110513     0.12300
H1664       H  0.01739995  0.79006025  0.99399380     0.14300
C1665       C  0.24293574  0.76638217  0.02751784    -0.05800
C1666       C  0.22520367  0.77505274  0.03878260    -0.05700
C1667       C  0.19345474  0.76352091  0.03466531    -0.23900
C1668       C  0.17900079  0.74291713  0.01936108     0.18400
C1669       C  0.19619928  0.73246594  0.00876602     0.15600
C1670       C  0.22803636  0.74436800  0.01286091    -0.18900
C1671       C  0.18156620  0.71119061  0.99378370    -0.20700
C1672       C  0.15062112  0.70174287  0.98862317    -0.13300
C1673       C  0.13421154  0.71380260  0.99821997     0.03400
C1674       C  0.14810231  0.73364421  0.01392192    -0.25400
H1675       H  0.23615766  0.79165992  0.05029526     0.08500
H1676       H  0.18044849  0.77138115  0.04309815     0.12100
H1677       H  0.24138261  0.73695203  0.00437589     0.12000
H1678       H  0.19436196  0.70271097  0.98566794     0.11800
H1679       H  0.14008913  0.68642876  0.97648124     0.12300
H1680       H  0.13519160  0.74266342  0.02144209     0.14300
Fe1681     Fe  0.56261089  0.23691843  0.98341201     1.65800
Fe1682     Fe  0.52291501  0.20447979  0.94218113     1.73200
Fe1683     Fe  0.54073710  0.16172990  0.97172743     1.54400
O1684       O  0.58262444  0.18110465  0.98685111    -0.82200
O1685       O  0.48145615  0.16561766  0.94818067    -0.80500
O1686       O  0.60107986  0.23225080  0.98793682    -0.84700
O1687       O  0.53955452  0.20795902  0.00658771    -0.79600
O1688       O  0.56523233  0.16486392  0.94733389    -0.81300
O1689       O  0.50434841  0.22993458  0.95349358    -0.84100
C1690       C  0.52091484  0.17865394  0.00896880     0.96700
C1691       C  0.60412788  0.20861913  0.99065265     1.04100
O1692       O  0.54242128  0.20143817  0.96583038    -1.13100
O1693       O  0.56220192  0.24415896  0.93447803    -0.75500
O1694       O  0.58710790  0.26818183  0.96142090    -0.79000
O1695       O  0.51636349  0.15812447  0.99637781    -0.79700
C1696       C  0.58415868  0.26704018  0.94332470     0.95600
O1697       O  0.52717094  0.24727738  0.98165319    -0.77600
O1698       O  0.53915497  0.17912723  0.92719398    -0.82800
C1699       C  0.97809620  0.13866191  0.94934292     0.98200
C1700       C  0.55783880  0.16873227  0.93054498     1.04100
O1701       O  0.49903829  0.13401257  0.95677493    -0.78500
C1702       C  0.50749375  0.24430224  0.96892014     1.02400
Fe1703     Fe  0.75497177  0.42685731  0.84637449     1.65800
Fe1704     Fe  0.78986713  0.46115782  0.88838672     1.73200
Fe1705     Fe  0.82922362  0.44232320  0.85732990     1.54400
O1706       O  0.80726256  0.40175729  0.84146827    -0.82200
O1707       O  0.83035840  0.50152596  0.88350235    -0.80500
O1708       O  0.75737848  0.38838458  0.83854065    -0.84700
O1709       O  0.78438573  0.45386388  0.82428148    -0.79600
O1710       O  0.82472777  0.41530452  0.88079059    -0.81300
O1711       O  0.76662631  0.48389359  0.87862122    -0.84100
C1712       C  0.81407086  0.46908740  0.82175733     0.96700
C1713       C  0.77945925  0.38282049  0.83625305     1.04100
O1714       O  0.79108509  0.44334263  0.86387640    -1.13100
O1715       O  0.74935820  0.42209573  0.89496454    -0.75500
O1716       O  0.72420840  0.39919967  0.86783080    -0.79000
O1717       O  0.83400255  0.46848866  0.83333034    -0.79700
C1718       C  0.72668051  0.40015671  0.88596400     0.95600
O1719       O  0.74559709  0.46206047  0.85090122    -0.77600
O1720       O  0.81295843  0.44077992  0.90226626    -0.82800
C1721       C  0.85661105  0.50329741  0.88166336     0.98200
C1722       C  0.82106003  0.42077565  0.89789726     1.04100
O1723       O  0.85937057  0.48234919  0.87292851    -0.78500
C1724       C  0.75072336  0.48167805  0.86383239     1.02400
Fe1725     Fe  0.76130067  0.37361458  0.32134136     1.65800
Fe1726     Fe  0.78122086  0.36535722  0.27721844     1.73200
Fe1727     Fe  0.83121368  0.42794411  0.30390733     1.54400
O1728       O  0.80950084  0.45225898  0.31271226    -0.82200
O1729       O  0.82613428  0.37526614  0.27264833    -0.80500
O1730       O  0.77246447  0.41706974  0.33107404    -0.84700
O1731       O  0.79372050  0.37277658  0.33978223    -0.79600
O1732       O  0.83002815  0.44305587  0.27634606    -0.81300
O1733       O  0.77295508  0.32518314  0.29137509    -0.84100
C1734       C  0.82234680  0.39331934  0.34241173     0.96700
C1735       C  0.78843701  0.44472252  0.32503024     1.04100
O1736       O  0.79154779  0.38905584  0.30084342    -1.13100
O1737       O  0.73472504  0.35227805  0.27820384    -0.75500
O1738       O  0.72826664  0.37484282  0.30365607    -0.79000
O1739       O  0.83717621  0.41665123  0.33148036    -0.79700
C1740       C  0.72001548  0.36304522  0.28714733     0.95600
O1741       O  0.74470254  0.32705092  0.31508801    -0.77600
O1742       O  0.78876056  0.40400808  0.26147760    -0.82800
C1743       C  0.85222021  0.39016373  0.28126473     0.98200
C1744       C  0.81100163  0.43221010  0.26227444     1.04100
O1745       O  0.85668904  0.40764556  0.29543574    -0.78500
C1746       C  0.75409736  0.31225076  0.30494315     1.02400
Fe1747     Fe  0.56157865  0.37346643  0.18230887     1.65800
Fe1748     Fe  0.53510664  0.37181625  0.22721808     1.73200
Fe1749     Fe  0.54724299  0.43121065  0.19719242     1.54400
O1750       O  0.59022194  0.45295829  0.18434976    -0.82200
O1751       O  0.49748586  0.37760187  0.22926782    -0.80500
O1752       O  0.59690167  0.41515027  0.17256268    -0.84700
O1753       O  0.52990079  0.37390557  0.16262016    -0.79600
O1754       O  0.57073662  0.45228562  0.22238653    -0.81300
O1755       O  0.50559348  0.32784922  0.21556673    -0.84100
C1756       C  0.51756832  0.39114900  0.16058201     0.96700
C1757       C  0.60582538  0.44374298  0.17495546     1.04100
O1758       O  0.54799471  0.39224327  0.20225575    -1.13100
O1759       O  0.57149362  0.36364621  0.22861139    -0.75500
O1760       O  0.59413904  0.37141317  0.20041160    -0.79000
O1761       O  0.52342479  0.41367942  0.17176271    -0.79700
C1762       C  0.59326965  0.36620767  0.21815125     0.95600
O1763       O  0.52889386  0.32839020  0.18869931    -0.77600
O1764       O  0.56253478  0.41347491  0.24213766    -0.82800
C1765       C  0.98887165  0.39549220  0.22199521     0.98200
C1766       C  0.57408639  0.44244538  0.23848801     1.04100
O1767       O  0.50416498  0.41558865  0.20944062    -0.78500
C1768       C  0.50818102  0.31418440  0.20104794     1.02400
Fe1769     Fe  0.83964991  0.09390584  0.15414894     1.65800
Fe1770     Fe  0.83465249  0.06333063  0.11011440     1.73200
Fe1771     Fe  0.89840976  0.08181657  0.13865277     1.54400
O1772       O  0.91974603  0.12606886  0.15050902    -0.82200
O1773       O  0.84058071  0.02524763  0.10967629    -0.80500
O1774       O  0.88152999  0.13003721  0.16390622    -0.84700
O1775       O  0.84155865  0.06326654  0.17355220    -0.79600
O1776       O  0.91664722  0.10269309  0.11239834    -0.81300
O1777       O  0.79168850  0.03559573  0.12229948    -0.84100
C1778       C  0.86107983  0.05375586  0.17628571     0.96700
C1779       C  0.91022632  0.14065100  0.16071508     1.04100
O1780       O  0.85766564  0.07964875  0.13427605    -1.13100
O1781       O  0.82677094  0.10026344  0.10766353    -0.75500
O1782       O  0.83666972  0.12492658  0.13562715    -0.79000
O1783       O  0.88397719  0.06058933  0.16523435    -0.79700
C1784       C  0.83031318  0.12292763  0.11792248     0.95600
O1785       O  0.79395664  0.06128173  0.14846448    -0.77600
O1786       O  0.87420005  0.08783408  0.09409266    -0.82800
C1787       C  0.86179604  0.01985953  0.11565784     0.98200
C1788       C  0.90370614  0.10099822  0.09629927     1.04100
O1789       O  0.88367955  0.03822508  0.12686481    -0.78500
C1790       C  0.77882109  0.03979976  0.13649795     1.02400
Fe1791     Fe  0.83810036  0.29045583  0.01363261     1.65800
Fe1792     Fe  0.83416865  0.31545368  0.05795024     1.73200
Fe1793     Fe  0.89349324  0.36226061  0.02963741     1.54400
O1794       O  0.91486566  0.34441854  0.01273675    -0.82200
O1795       O  0.83137412  0.35514374  0.05554711    -0.80500
O1796       O  0.88037151  0.29429007  0.00819991    -0.84700
O1797       O  0.84416383  0.32366517  0.99291511    -0.79600
O1798       O  0.91506976  0.35435677  0.05238354    -0.81300
O1799       O  0.78907214  0.29138266  0.04667714    -0.84100
C1800       C  0.85574946  0.35334247  0.99300601     0.96700
C1801       C  0.90777073  0.31727981  0.00725667     1.04100
O1802       O  0.85504768  0.32243900  0.03360854    -1.13100
O1803       O  0.83486802  0.27513910  0.06170843    -0.75500
O1804       O  0.83056249  0.25485387  0.03275931    -0.79000
O1805       O  0.87300129  0.37085754  0.00650209    -0.79700
C1806       C  0.83160234  0.25330508  0.05084039     0.95600
O1807       O  0.79319443  0.28147611  0.01646157    -0.77600
O1808       O  0.87664932  0.33826006  0.07333705    -0.82800
C1809       C  0.85445722  0.38235793  0.05414377     0.98200
C1810       C  0.90519786  0.34799774  0.06922897     1.04100
O1811       O  0.88000590  0.38785163  0.04667993    -0.78500
C1812       C  0.77705893  0.28066216  0.03045969     1.02400
Fe1813     Fe  0.70154254  0.15160355  0.82028583     1.65800
Fe1814     Fe  0.67041484  0.14915272  0.77679030     1.73200
Fe1815     Fe  0.62587597  0.09654847  0.80990732     1.54400
O1816       O  0.64781015  0.07249885  0.81933816    -0.82200
O1817       O  0.62517816  0.13946216  0.77459985    -0.80500
O1818       O  0.69370206  0.10952506  0.83102860    -0.84700
O1819       O  0.67507933  0.15584046  0.84143828    -0.79600
O1820       O  0.61894696  0.07424866  0.78371210    -0.81300
O1821       O  0.68289093  0.19298608  0.78710262    -0.84100
C1822       C  0.64683411  0.13837024  0.84635802     0.96700
C1823       C  0.67351374  0.08105967  0.82816614     1.04100
O1824       O  0.66587652  0.13245621  0.80247065    -1.13100
O1825       O  0.71635332  0.16146063  0.77423549    -0.75500
O1826       O  0.73166518  0.14911007  0.80104605    -0.79000
O1827       O  0.62746148  0.11466805  0.83668818    -0.79700
C1828       C  0.73559989  0.15674410  0.78365606     0.95600
O1829       O  0.71384422  0.19613517  0.81149170    -0.77600
O1830       O  0.65829697  0.10627227  0.76505686    -0.82800
C1831       C  0.60148581  0.12942759  0.78503917     0.98200
C1832       C  0.63461743  0.07979989  0.76853981     1.04100
O1833       O  0.60002495  0.11696255  0.80102255    -0.78500
C1834       C  0.70320498  0.20852443  0.79989356     1.02400
Fe1835     Fe  0.89769405  0.15719454  0.68075898     1.65800
Fe1836     Fe  0.92313357  0.16246552  0.72591637     1.73200
Fe1837     Fe  0.91350310  0.10260998  0.69839073     1.54400
O1838       O  0.86855935  0.07869740  0.68766562    -0.82200
O1839       O  0.95644664  0.15050275  0.73300963    -0.80500
O1840       O  0.86549329  0.11436469  0.66992847    -0.84700
O1841       O  0.93196152  0.15916228  0.66297409    -0.79600
O1842       O  0.89462906  0.08584578  0.72519243    -0.81300
O1843       O  0.95705280  0.20218958  0.71292936    -0.84100
C1844       C  0.94167483  0.13976435  0.66081097     0.96700
C1845       C  0.85439531  0.08654272  0.67563465     1.04100
O1846       O  0.91157380  0.14059771  0.70160188    -1.13100
O1847       O  0.89154597  0.17801018  0.72310671    -0.75500
O1848       O  0.86243012  0.15513496  0.69750984    -0.79000
O1849       O  0.93335655  0.11615517  0.67161285    -0.79700
C1850       C  0.86580999  0.16673827  0.71402517     0.95600
O1851       O  0.92785549  0.20284841  0.68864418    -0.77600
O1852       O  0.88962237  0.12328334  0.73977679    -0.82800
C1853       C  0.96918640  0.13742987  0.72436603     0.98200
C1854       C  0.88440358  0.09532238  0.73873427     1.04100
O1855       O  0.95836113  0.12271618  0.70892906    -0.78500
C1856       C  0.95212629  0.21609236  0.69923653     1.02400
Fe1857     Fe  0.89451379  0.29450704  0.48708143     1.65800
Fe1858     Fe  0.93261380  0.33193533  0.44713924     1.73200
Fe1859     Fe  0.91181839  0.36923542  0.47837957     1.54400
O1860       O  0.86986443  0.34610825  0.49259895    -0.82200
O1861       O  0.97289302  0.37102057  0.45492193    -0.80500
O1862       O  0.85422622  0.29558033  0.49101500    -0.84700
O1863       O  0.91558358  0.32175499  0.51141589    -0.79600
O1864       O  0.88666136  0.36634892  0.45433804    -0.81300
O1865       O  0.95308929  0.30662053  0.45726807    -0.84100
C1866       C  0.93272914  0.35105933  0.51471693     0.96700
C1867       C  0.84937520  0.31772493  0.49486682     1.04100
O1868       O  0.91285815  0.33156915  0.47096581    -1.13100
O1869       O  0.89368657  0.29275452  0.43791341    -0.75500
O1870       O  0.87199200  0.26470752  0.46400231    -0.79000
O1871       O  0.93614405  0.37201008  0.50279981    -0.79700
C1872       C  0.87303890  0.26836742  0.44601504     0.95600
O1873       O  0.93207356  0.28779104  0.48533120    -0.77600
O1874       O  0.91464187  0.35734006  0.43327019    -0.82800
C1875       C  0.97516930  0.39739939  0.45718348     0.98200
C1876       C  0.89364995  0.36424703  0.43736096     1.04100
O1877       O  0.95342234  0.40017467  0.46476660    -0.78500
C1878       C  0.95138382  0.29202226  0.47247090     1.02400
Fe1879     Fe  0.70493527  0.09462359  0.35312987     1.65800
Fe1880     Fe  0.67701967  0.05910167  0.39564628     1.73200
Fe1881     Fe  0.63368828  0.08033073  0.36870340     1.54400
O1882       O  0.65394285  0.12210247  0.35369354    -0.82200
O1883       O  0.63569827  0.01911566  0.39092653    -0.80500
O1884       O  0.70250811  0.13384149  0.34771447    -0.84700
O1885       O  0.67177971  0.06882809  0.33162776    -0.79600
O1886       O  0.64153863  0.10586758  0.39346351    -0.81300
O1887       O  0.69870122  0.03699253  0.38317935    -0.84100
C1888       C  0.64176340  0.05280339  0.33100477     0.96700
C1889       C  0.68099266  0.14057927  0.34743713     1.04100
O1890       O  0.67227964  0.07838437  0.37243685    -1.13100
O1891       O  0.71905182  0.09742697  0.40154633    -0.75500
O1892       O  0.73931778  0.12065830  0.37377189    -0.79000
O1893       O  0.62460552  0.05423237  0.34398363    -0.79700
C1894       C  0.74065116  0.11881013  0.39186746     0.95600
O1895       O  0.71413092  0.05884385  0.35499950    -0.77600
O1896       O  0.65561404  0.07830635  0.41226430    -0.82800
C1897       C  0.60947848  0.01778447  0.39071656     0.98200
C1898       C  0.64575838  0.09766785  0.40990240     1.04100
O1899       O  0.60577748  0.03966984  0.38401490    -0.78500
C1900       C  0.71175906  0.03939846  0.36742921     1.02400
Fe1901     Fe  0.62064111  0.43180332  0.65088669     1.65800
Fe1902     Fe  0.62193580  0.47189015  0.61147871     1.73200
Fe1903     Fe  0.56335577  0.44998263  0.64268462     1.54400
O1904       O  0.54468872  0.40787718  0.65665646    -0.82200
O1905       O  0.62239712  0.51171483  0.61945088    -0.80500
O1906       O  0.57925792  0.39177901  0.65476713    -0.84700
O1907       O  0.61572433  0.45305303  0.67510796    -0.79600
O1908       O  0.54070039  0.42631737  0.61807141    -0.81300
O1909       O  0.66735694  0.49184500  0.62174664    -0.84100
C1910       C  0.60401067  0.47045959  0.67871218     0.96700
C1911       C  0.55240740  0.38713933  0.65872503     1.04100
O1912       O  0.60206466  0.45099351  0.63504146    -1.13100
O1913       O  0.62305899  0.43355792  0.60176527    -0.75500
O1914       O  0.62740233  0.40980458  0.62774964    -0.79000
O1915       O  0.58511797  0.47351542  0.66749133    -0.79700
C1916       C  0.62614957  0.41216568  0.60975291     0.95600
O1917       O  0.66471855  0.46879198  0.64926915    -0.77600
O1918       O  0.57894969  0.45492329  0.59779757    -0.82800
C1919       C  0.59759279  0.51299627  0.62111154     0.98200
C1920       C  0.55042869  0.43548316  0.60134199     1.04100
O1921       O  0.57375384  0.49147249  0.62922583    -0.78500
C1922       C  0.67993612  0.48900021  0.63685596     1.02400
Fe1923     Fe  0.61776299  0.23812967  0.51844192     1.65800
Fe1924     Fe  0.62009375  0.20366678  0.55983557     1.73200
Fe1925     Fe  0.56119772  0.16399901  0.52849744     1.54400
O1926       O  0.54157703  0.18584376  0.51276870    -0.82200
O1927       O  0.62107470  0.16399562  0.55367065    -0.80500
O1928       O  0.57623977  0.23640569  0.51318029    -0.84700
O1929       O  0.61222181  0.20913024  0.49519897    -0.79600
O1930       O  0.53934401  0.16863329  0.55206621    -0.81300
O1931       O  0.66534680  0.22753802  0.54965985    -0.84100
C1932       C  0.60119150  0.17972538  0.49278867     0.96700
C1933       C  0.54914092  0.21403525  0.50969230     1.04100
O1934       O  0.59981413  0.20231251  0.53555762    -1.13100
O1935       O  0.62178393  0.24409702  0.56743501    -0.75500
O1936       O  0.62499391  0.26949787  0.54046596    -0.79000
O1937       O  0.58302730  0.15936284  0.50470663    -0.79700
C1938       C  0.62477599  0.26779086  0.55857231     0.95600
O1939       O  0.66206362  0.24566931  0.52132459    -0.77600
O1940       O  0.57695903  0.17983948  0.57384849    -0.82800
C1941       C  0.59724191  0.13758910  0.55118488     0.98200
C1942       C  0.54886115  0.17239176  0.56927096     1.04100
O1943       O  0.57218048  0.13423131  0.54368196    -0.78500
C1944       C  0.67755190  0.24171759  0.53436718     1.02400
C1945       C  0.59479048  0.03762140  0.61095009    -0.05800
C1946       C  0.56893962  0.04179126  0.61385663    -0.05700
C1947       C  0.56298698  0.06063936  0.60165022    -0.23900
C1948       C  0.58264724  0.07536051  0.58627089     0.18400
C1949       C  0.60897886  0.07167033  0.58339840     0.15600
C1950       C  0.61497610  0.05304994  0.59581212    -0.18900
C1951       C  0.62897759  0.08680020  0.56820582    -0.20700
C1952       C  0.62384314  0.10678118  0.55655836    -0.13300
C1953       C  0.59807122  0.11094058  0.55957218     0.03400
C1954       C  0.57701967  0.09451816  0.57406687    -0.25400
H1955       H  0.55281815  0.52975442  0.62524694     0.08500
H1956       H  0.54281620  0.06339819  0.60409840     0.12100
H1957       H  0.63466942  0.04956259  0.59316987     0.12000
H1958       H  0.64922362  0.08414633  0.56580362     0.11800
H1959       H  0.64061830  0.11996304  0.54567153     0.12300
H1960       H  0.55767600  0.09857024  0.57673572     0.14300
C1961       C  0.62771516  0.38884456  0.59741043    -0.05800
C1962       C  0.62480395  0.39018997  0.57754843    -0.05700
C1963       C  0.62459873  0.36735348  0.56583442    -0.23900
C1964       C  0.62724212  0.34270139  0.57374934     0.18400
C1965       C  0.63064167  0.34142440  0.59366059     0.15600
C1966       C  0.63096405  0.36447719  0.60532860    -0.18900
C1967       C  0.63315985  0.31681335  0.60165939    -0.20700
C1968       C  0.63175055  0.29334409  0.59010733    -0.13300
C1969       C  0.62788579  0.29399944  0.57027662     0.03400
C1970       C  0.62602607  0.31905037  0.56214657    -0.25400
H1971       H  0.62224960  0.40871289  0.57100957     0.08500
H1972       H  0.62199302  0.36877955  0.55062479     0.12100
H1973       H  0.63323186  0.36311104  0.62058209     0.12000
H1974       H  0.63585034  0.31549744  0.61687311     0.11800
H1975       H  0.63346008  0.27445669  0.59682376     0.12300
H1976       H  0.62298406  0.31982065  0.54692274     0.14300
C1977       C  0.61047202  0.16890067  0.47555186    -0.05800
C1978       C  0.62316369  0.18864576  0.45976293    -0.05700
C1979       C  0.63259273  0.17883242  0.44374212    -0.23900
C1980       C  0.63005980  0.14921676  0.44323778     0.18400
C1981       C  0.61798722  0.12940861  0.45915664     0.15600
C1982       C  0.60795638  0.13916936  0.47505164    -0.18900
C1983       C  0.61628781  0.10018303  0.45895924    -0.20700
C1984       C  0.62614963  0.09051848  0.44313308    -0.13300
C1985       C  0.63743434  0.10956165  0.42697063     0.03400
C1986       C  0.63933397  0.13902998  0.42713763    -0.25400
H1987       H  0.62562784  0.21171050  0.45973378     0.08500
H1988       H  0.64200546  0.19449889  0.43176712     0.12100
H1989       H  0.59875256  0.12381365  0.48718803     0.12000
H1990       H  0.60723657  0.08471186  0.47104740     0.11800
H1991       H  0.62415344  0.06764193  0.44334478     0.12300
H1992       H  0.64816673  0.15403411  0.41482684     0.14300
C1993       C  0.94990819  0.36166609  0.53306290    -0.05800
C1994       C  0.94295297  0.34130282  0.54856705    -0.05700
C1995       C  0.96000197  0.35191230  0.56566050    -0.23900
C1996       C  0.98451940  0.38292465  0.56741030     0.18400
C1997       C  0.99140722  0.40343376  0.55186095     0.15600
C1998       C  0.97401463  0.39280917  0.53498973    -0.18900
C1999       C  0.01608947  0.43421075  0.55318688    -0.20700
C2000       C  0.53452783  0.44446430  0.56957063    -0.13300
C2001       C  0.52842305  0.42432260  0.58506201     0.03400
C2002       C  0.00287488  0.39367357  0.58413655    -0.25400
H2003       H  0.92435345  0.31721460  0.54748507     0.08500
H2004       H  0.95432209  0.33578589  0.57738432     0.12100
H2005       H  0.97984572  0.40879597  0.52315924     0.12000
H2006       H  0.02156711  0.45019431  0.54139480     0.11800
H2007       H  0.55390616  0.46825835  0.57007329     0.12300
H2008       H  0.99819135  0.37797806  0.59600678     0.14300
C2009       C  0.58369471  0.99151573  0.40046044    -0.05800
C2010       C  0.58051686  0.96170808  0.39940832    -0.05700
C2011       C  0.55970295  0.93784524  0.41117212    -0.23900
C2012       C  0.54220970  0.44366129  0.42439018     0.18400
C2013       C  0.54526023  0.47362077  0.42560648     0.15600
C2014       C  0.56582927  0.49735374  0.41346734    -0.18900
C2015       C  0.02775582  0.47924046  0.43897257    -0.20700
C2016       C  0.00614925  0.45489119  0.45031156    -0.13300
C2017       C  0.00217352  0.42475021  0.44864780     0.03400
C2018       C  0.52119183  0.41971085  0.43609712    -0.25400
H2019       H  0.59464476  0.95710737  0.38972256     0.08500
H2020       H  0.55758256  0.91496320  0.41010309     0.12100
H2021       H  0.56901043  0.52066795  0.41471533     0.12000
H2022       H  0.03007803  0.50218177  0.44024239     0.11800
H2023       H  0.99174434  0.45935498  0.45983424     0.12300
H2024       H  0.51843836  0.39661044  0.43458450     0.14300
C2025       C  0.76767387  0.14267716  0.40281274    -0.05800
C2026       C  0.77449947  0.13492775  0.42083730    -0.05700
C2027       C  0.79655314  0.15788930  0.43286976    -0.23900
C2028       C  0.81215687  0.18909952  0.42713941     0.18400
C2029       C  0.80613934  0.19707778  0.40882733     0.15600
C2030       C  0.78409598  0.17376381  0.39669328    -0.18900
C2031       C  0.82178673  0.22833742  0.40313306    -0.20700
C2032       C  0.84330891  0.25138759  0.41538117    -0.13300
C2033       C  0.84942467  0.24365878  0.43360855     0.03400
C2034       C  0.83355649  0.21244385  0.43946738    -0.25400
H2035       H  0.76213779  0.11103741  0.42584922     0.08500
H2036       H  0.80095775  0.15130078  0.44677839     0.12100
H2037       H  0.77869422  0.17998446  0.38293581     0.12000
H2038       H  0.81739746  0.23496632  0.38923328     0.11800
H2039       H  0.85510807  0.27541249  0.41059310     0.12300
H2040       H  0.83822545  0.20628037  0.45344511     0.14300
C2041       C  0.97253775  0.27930092  0.47561592    -0.05800
C2042       C  0.00310066  0.29473707  0.46858143    -0.05700
C2043       C  0.52392889  0.28414881  0.47323065    -0.23900
C2044       C  0.01427875  0.25769917  0.48471851     0.18400
C2045       C  0.98308358  0.24114203  0.49107554     0.15600
C2046       C  0.96252311  0.25219687  0.48660276    -0.18900
C2047       C  0.97321157  0.21424681  0.50217394    -0.20700
C2048       C  0.99439172  0.20443757  0.50751229    -0.13300
C2049       C  0.52578180  0.22165843  0.50204356     0.03400
C2050       C  0.53546234  0.24797191  0.49036606    -0.25400
H2051       H  0.01119849  0.31562682  0.46008306     0.08500
H2052       H  0.54771794  0.29694655  0.46812557     0.12100
H2053       H  0.93878256  0.23990707  0.49185512     0.12000
H2054       H  0.94929688  0.20118621  0.50704494     0.11800
H2055       H  0.98659224  0.18419886  0.51657853     0.12300
H2056       H  0.55965331  0.26118595  0.48595715     0.14300
C2057       C  0.81870035  0.30979565  0.50240287    -0.05800
C2058       C  0.80470900  0.32774814  0.49771578    -0.05700
C2059       C  0.77452877  0.31861496  0.50383352    -0.23900
C2060       C  0.75827769  0.29171744  0.51494773     0.18400
C2061       C  0.77278103  0.27429403  0.52038085     0.15600
C2062       C  0.80279232  0.28330905  0.51392032    -0.18900
C2063       C  0.75676693  0.24779433  0.53185478    -0.20700
C2064       C  0.72609440  0.23791696  0.53732463    -0.13300
C2065       C  0.71105488  0.25421133  0.53114927     0.03400
C2066       C  0.72747626  0.28146915  0.52030943    -0.25400
H2067       H  0.81672267  0.34822560  0.48883380     0.08500
H2068       H  0.76373647  0.33228511  0.49965395     0.12100
H2069       H  0.81375467  0.26963490  0.51776435     0.12000
H2070       H  0.76771027  0.23435826  0.53624087     0.11800
H2071       H  0.71366972  0.21681926  0.54564158     0.12300
H2072       H  0.71598872  0.29431931  0.51570603     0.14300
C2073       C  0.52659949  0.16833385  0.58452410    -0.05800
C2074       C  0.00349539  0.17674034  0.58131054    -0.05700
C2075       C  0.98300485  0.17403732  0.59573570    -0.23900
C2076       C  0.98463615  0.16209821  0.61356698     0.18400
C2077       C  0.00746894  0.15309902  0.61686091     0.15600
C2078       C  0.52862309  0.15678656  0.60247001    -0.18900
C2079       C  0.00849896  0.14018502  0.63442687    -0.20700
C2080       C  0.98692991  0.13579742  0.64848226    -0.13300
C2081       C  0.96425721  0.14486798  0.64551612     0.03400
C2082       C  0.96356550  0.15851268  0.62804382    -0.25400
H2083       H  0.00165154  0.18597740  0.56767953     0.08500
H2084       H  0.96567204  0.18101242  0.59287253     0.12100
H2085       H  0.54622611  0.15006756  0.60509260     0.12000
H2086       H  0.52576957  0.13310261  0.63723085     0.11800
H2087       H  0.98820927  0.12555753  0.66185868     0.12300
H2088       H  0.94613645  0.16549200  0.62554079     0.14300
C2089       C  0.97490828  0.24871574  0.69501750    -0.05800
C2090       C  0.00697672  0.26065090  0.69854260    -0.05700
C2091       C  0.52865830  0.29052266  0.69229628    -0.23900
C2092       C  0.01840705  0.30879941  0.68264936     0.18400
C2093       C  0.98603960  0.29728453  0.67969760     0.15600
C2094       C  0.96456755  0.26733446  0.68585592    -0.18900
C2095       C  0.97568441  0.31568168  0.67035058    -0.20700
C2096       C  0.99731219  0.34522906  0.66373692    -0.13300
C2097       C  0.52951520  0.35649507  0.66617302     0.03400
C2098       C  0.53994002  0.33824888  0.67572691    -0.25400
H2099       H  0.01529763  0.24646387  0.70547136     0.08500
H2100       H  0.55341282  0.29912335  0.69472936     0.12100
H2101       H  0.93975104  0.25828477  0.68324438     0.12000
H2102       H  0.95090988  0.30713848  0.66804706     0.11800
H2103       H  0.98890894  0.35901927  0.65638875     0.12300
H2104       H  0.56481130  0.34703625  0.67785119     0.14300
C2105       C  0.71358702  0.50976878  0.64041571    -0.05800
C2106       C  0.73007415  0.53853028  0.63106448    -0.05700
C2107       C  0.76159794  0.55877136  0.63545779    -0.23900
C2108       C  0.77699898  0.05036633  0.64916463     0.18400
C2109       C  0.76074771  0.02109689  0.65824459     0.15600
C2110       C  0.72921266  0.00104844  0.65382617    -0.18900
C2111       C  0.77609342  0.01258790  0.67189090    -0.20700
C2112       C  0.80711086  0.03339819  0.67699293    -0.13300
C2113       C  0.82319070  0.06299141  0.66851074     0.03400
C2114       C  0.80813539  0.07105054  0.65429037    -0.25400
H2115       H  0.71841804  0.54567070  0.62070356     0.08500
H2116       H  0.77378524  0.58114392  0.62835929     0.12100
H2117       H  0.71675851  0.97872663  0.66098497     0.12000
H2118       H  0.76390744  0.99014644  0.67891575     0.11800
H2119       H  0.81815168  0.02669250  0.68802000     0.12300
H2120       H  0.82029567  0.09377786  0.64758236     0.14300
C2121       C  0.61412269  0.48911888  0.69634678    -0.05800
C2122       C  0.64614979  0.50619639  0.70108480    -0.05700
C2123       C  0.65665996  0.02680758  0.71652284    -0.23900
C2124       C  0.63520070  0.03010603  0.72775367     0.18400
C2125       C  0.60274892  0.01163163  0.72373076     0.15600
C2126       C  0.59243477  0.49164074  0.70784434    -0.18900
C2127       C  0.58124006  0.01398506  0.73544246    -0.20700
C2128       C  0.59177247  0.03521516  0.75056799    -0.13300
C2129       C  0.62396716  0.05493939  0.75399915     0.03400
C2130       C  0.64562546  0.05199790  0.74267308    -0.25400
H2131       H  0.66318665  0.50455122  0.69233133     0.08500
H2132       H  0.68157693  0.04050201  0.71949542     0.12100
H2133       H  0.56766412  0.47823901  0.70433380     0.12000
H2134       H  0.55629432  0.99978061  0.73272250     0.11800
H2135       H  0.57471440  0.03715828  0.75912100     0.12300
H2136       H  0.67050938  0.06690796  0.74538110     0.14300
C2137       C  0.99687056  0.13838235  0.73298126    -0.05800
C2138       C  0.51903787  0.13687139  0.72147216    -0.05700
C2139       C  0.54428026  0.13565054  0.72964518    -0.23900
C2140       C  0.54725512  0.13528534  0.74943215     0.18400
C2141       C  0.52507000  0.13675758  0.76119626     0.15600
C2142       C  0.00018035  0.13880145  0.75285996    -0.18900
C2143       C  0.52785502  0.13545086  0.78102250    -0.20700
C2144       C  0.55250593  0.13264719  0.78907974    -0.13300
C2145       C  0.57479719  0.13169077  0.77736979     0.03400
C2146       C  0.57192586  0.13299375  0.75757404    -0.25400
H2147       H  0.51675775  0.13653606  0.70614145     0.08500
H2148       H  0.56116704  0.13446571  0.72051031     0.12100
H2149       H  0.98279282  0.13950375  0.76178142     0.12000
H2150       H  0.51091606  0.13637050  0.79023327     0.11800
H2151       H  0.55439220  0.13165293  0.80437442     0.12300
H2152       H  0.58871665  0.13169712  0.74838207     0.14300
C2153       C  0.83943014  0.16666154  0.72371209    -0.05800
C2154       C  0.81302207  0.16316042  0.71370875    -0.05700
C2155       C  0.78777668  0.16156783  0.72353154    -0.23900
C2156       C  0.78841787  0.16279333  0.74347064     0.18400
C2157       C  0.81486184  0.16621601  0.75360238     0.15600
C2158       C  0.84023177  0.16848677  0.74367291    -0.18900
C2159       C  0.81528787  0.16665641  0.77352458    -0.20700
C2160       C  0.78947907  0.16341746  0.78341220    -0.13300
C2161       C  0.76309895  0.16013687  0.77350021     0.03400
C2162       C  0.76285991  0.16007350  0.75347678    -0.25400
H2163       H  0.81189589  0.16159915  0.69836220     0.08500
H2164       H  0.76756852  0.15886333  0.71557276     0.12100
H2165       H  0.86026910  0.17065548  0.75160312     0.12000
H2166       H  0.83545506  0.16918673  0.78145211     0.11800
H2167       H  0.79022356  0.16366833  0.79878267     0.12300
H2168       H  0.74251509  0.15729241  0.74562554     0.14300
C2169       C  0.85216837  0.40787967  0.06294770    -0.05800
C2170       C  0.82624976  0.41169725  0.05917341    -0.05700
C2171       C  0.82243974  0.43387628  0.06921227    -0.23900
C2172       C  0.84403304  0.45176464  0.08353103     0.18400
C2173       C  0.86991280  0.44759078  0.08758292     0.15600
C2174       C  0.87407037  0.42598321  0.07704056    -0.18900
C2175       C  0.89105771  0.46494338  0.10217977    -0.20700
C2176       C  0.88733312  0.98719032  0.11221013    -0.13300
C2177       C  0.86238033  0.99242577  0.10780930     0.03400
C2178       C  0.84037782  0.47400221  0.09370271    -0.25400
H2179       H  0.80892972  0.39738078  0.04853758     0.08500
H2180       H  0.80241921  0.43672725  0.06597664     0.12100
H2181       H  0.89361991  0.42232032  0.08027622     0.12000
H2182       H  0.91083005  0.46176296  0.10557856     0.11800
H2183       H  0.90468554  0.00110719  0.12292292     0.12300
H2184       H  0.82100122  0.47772614  0.09008734     0.14300
C2185       C  0.82787548  0.14828270  0.10837085    -0.05800
C2186       C  0.82930946  0.17314103  0.11880591    -0.05700
C2187       C  0.82922461  0.19806459  0.10946461    -0.23900
C2188       C  0.82800287  0.19858702  0.08957441     0.18400
C2189       C  0.82605960  0.17353401  0.07894008     0.15600
C2190       C  0.82574593  0.14845234  0.08840360    -0.18900
C2191       C  0.82514184  0.17431549  0.05902261    -0.20700
C2192       C  0.82666799  0.20008257  0.04968550    -0.13300
C2193       C  0.82899190  0.22528574  0.06017919     0.03400
C2194       C  0.82928233  0.22408407  0.08016524    -0.25400
H2195       H  0.83091168  0.17353337  0.13415822     0.08500
H2196       H  0.83066931  0.21718501  0.11777706     0.12100
H2197       H  0.82473411  0.12949301  0.08012284     0.12000
H2198       H  0.82364244  0.15519894  0.05068363     0.11800
H2199       H  0.82631851  0.20040717  0.03431871     0.12300
H2200       H  0.83094201  0.24324096  0.08854976     0.14300
C2201       C  0.49441310  0.38439999  0.14503258    -0.05800
C2202       C  0.97099022  0.39244942  0.14743082    -0.05700
C2203       C  0.94834496  0.38588115  0.13333909    -0.23900
C2204       C  0.94892250  0.37162801  0.11634707     0.18400
C2205       C  0.97261126  0.36380630  0.11353026     0.15600
C2206       C  0.49493965  0.36975771  0.12803953    -0.18900
C2207       C  0.97369775  0.35058841  0.09615471    -0.20700
C2208       C  0.95179107  0.34553272  0.08171674    -0.13300
C2209       C  0.92790716  0.35277084  0.08459505     0.03400
C2210       C  0.92643125  0.36551755  0.10203461    -0.25400
H2211       H  0.96985229  0.40345623  0.16043253     0.08500
H2212       H  0.93046968  0.39216644  0.13569692     0.12100
H2213       H  0.51298357  0.36359922  0.12597977     0.12000
H2214       H  0.49170802  0.34455387  0.09363900     0.11800
H2215       H  0.95329444  0.33567248  0.06832982     0.12300
H2216       H  0.90833248  0.37157368  0.10422922     0.14300
C2217       C  0.48654324  0.28046562  0.19782702    -0.05800
C2218       C  0.95528612  0.26591674  0.20367351    -0.05700
C2219       C  0.93425821  0.23497739  0.19831847    -0.23900
C2220       C  0.94428620  0.21813763  0.18716449     0.18400
C2221       C  0.97602904  0.23221295  0.18199557     0.15600
C2222       C  0.49685639  0.26314736  0.18736521    -0.18900
C2223       C  0.98627821  0.21549190  0.17101839    -0.20700
C2224       C  0.96504202  0.18543605  0.16454669    -0.13300
C2225       C  0.93313191  0.17149908  0.16893414     0.03400
C2226       C  0.92305150  0.18784833  0.18064242    -0.25400
H2227       H  0.94685403  0.27884149  0.21170408     0.08500
H2228       H  0.91001103  0.22448723  0.20250242     0.12100
H2229       H  0.52106211  0.27406018  0.18298037     0.12000
H2230       H  0.51063392  0.22593887  0.16707042     0.11800
H2231       H  0.97353226  0.17339556  0.15572099     0.12300
H2232       H  0.89857125  0.17736918  0.18431994     0.14300
C2233       C  0.63618591  0.46701196  0.16700842    -0.05800
C2234       C  0.65154954  0.99795590  0.17371721    -0.05700
C2235       C  0.68199859  0.01891840  0.16809978    -0.23900
C2236       C  0.69752970  0.00924943  0.15568682     0.18400
C2237       C  0.68172127  0.47871385  0.14803332     0.15600
C2238       C  0.65110747  0.45782370  0.15368824    -0.18900
C2239       C  0.69724166  0.46925825  0.13542484    -0.20700
C2240       C  0.72867091  0.98942300  0.13114775    -0.13300
C2241       C  0.74498374  0.01923275  0.13949166     0.03400
C2242       C  0.72895736  0.02927009  0.15134407    -0.25400
H2243       H  0.64051975  0.00563255  0.18391102     0.08500
H2244       H  0.69374686  0.04238289  0.17393719     0.12100
H2245       H  0.63932878  0.43411893  0.14820326     0.12000
H2246       H  0.68534317  0.44600744  0.12928284     0.11800
H2247       H  0.74046744  0.48134650  0.12181668     0.12300
H2248       H  0.74114304  0.05249162  0.15755093     0.14300
C2249       C  0.59153161  0.46576002  0.25373931    -0.05800
C2250       C  0.62015927  0.49287713  0.24999841    -0.05700
C2251       C  0.63629069  0.01516663  0.26432355    -0.23900
C2252       C  0.62359696  0.01132513  0.28253701     0.18400
C2253       C  0.59434706  0.98453845  0.28622322     0.15600
C2254       C  0.57888359  0.46170129  0.27198090    -0.18900
C2255       C  0.58084866  0.98114106  0.30405880    -0.20700
C2256       C  0.59612943  0.00378230  0.31817956    -0.13300
C2257       C  0.62565409  0.03021561  0.31504801     0.03400
C2258       C  0.63937066  0.03376370  0.29707608    -0.25400
H2259       H  0.63023676  0.49660776  0.23601355     0.08500
H2260       H  0.65852604  0.03559598  0.26108180     0.12100
H2261       H  0.55651111  0.44117296  0.27490557     0.12000
H2262       H  0.55834845  0.96091352  0.30711290     0.11800
H2263       H  0.58502587  0.00016546  0.33183033     0.12300
H2264       H  0.66200127  0.05404406  0.29434849     0.14300
C2265       C  0.87661363  0.36968217  0.42177404    -0.05800
C2266       C  0.84605046  0.36418707  0.42450173    -0.05700
C2267       C  0.82903474  0.36734865  0.40945813    -0.23900
C2268       C  0.84251653  0.37659853  0.39152622     0.18400
C2269       C  0.87361927  0.38310083  0.38882913     0.15600
C2270       C  0.89028672  0.37922789  0.40388205    -0.18900
C2271       C  0.88754329  0.39334139  0.37110410    -0.20700
C2272       C  0.87081714  0.39704931  0.35615140    -0.13300
C2273       C  0.83968694  0.38990869  0.35854677     0.03400
C2274       C  0.82553127  0.37953250  0.37624984    -0.25400
H2275       H  0.83500244  0.35665892  0.43817235     0.08500
H2276       H  0.80532548  0.36247139  0.41183458     0.12100
H2277       H  0.91395799  0.38379489  0.40170116     0.12000
H2278       H  0.91138246  0.39855231  0.36881531     0.11800
H2279       H  0.88201409  0.40494416  0.34254408     0.12300
H2280       H  0.80158973  0.37429812  0.37818280     0.14300
C2281       C  0.85687913  0.03371435  0.19302625    -0.05800
C2282       C  0.88301648  0.03527955  0.20239109    -0.05700
C2283       C  0.87926924  0.01650002  0.21819299    -0.23900
C2284       C  0.84923400  0.99516118  0.22465879     0.18400
C2285       C  0.82269654  0.99288313  0.21512705     0.15600
C2286       C  0.82669324  0.01256053  0.19960711    -0.18900
C2287       C  0.79263292  0.47062149  0.22111660    -0.20700
C2288       C  0.78889936  0.45071902  0.23630855    -0.13300
C2289       C  0.81510192  0.45325559  0.24614519     0.03400
C2290       C  0.84527707  0.97576198  0.24031117    -0.25400
H2291       H  0.90645304  0.05139278  0.19761773     0.08500
H2292       H  0.89987831  0.01844283  0.22523783     0.12100
H2293       H  0.80632740  0.01085742  0.19234488     0.12000
H2294       H  0.77200265  0.46837177  0.21392347     0.11800
H2295       H  0.76546312  0.43357925  0.24056802     0.12300
H2296       H  0.86564239  0.97759638  0.24764929     0.14300
C2297       C  0.96082333  0.39368154  0.22969399    -0.05800
C2298       C  0.93692988  0.39193149  0.21787399    -0.05700
C2299       C  0.90979835  0.38889092  0.22585015    -0.23900
C2300       C  0.90694208  0.38848752  0.24565851     0.18400
C2301       C  0.93140695  0.39095021  0.25757421     0.15600
C2302       C  0.95797402  0.39304515  0.24947282    -0.18900
C2303       C  0.92916485  0.39189883  0.27735398    -0.20700
C2304       C  0.90304978  0.39115946  0.28529382    -0.13300
C2305       C  0.87865882  0.38851286  0.27351322     0.03400
C2306       C  0.88043686  0.38659311  0.25375624    -0.25400
H2307       H  0.93904000  0.39228697  0.20258109     0.08500
H2308       H  0.89125326  0.38721472  0.21658411     0.12100
H2309       H  0.97681206  0.39480670  0.25853715     0.12000
H2310       H  0.94787293  0.39393258  0.28661269     0.11800
H2311       H  0.90190445  0.39275766  0.30056232     0.12300
H2312       H  0.86180591  0.38513138  0.24463021     0.14300
C2313       C  0.69315877  0.36241053  0.27737625    -0.05800
C2314       C  0.67300061  0.36980488  0.28704423    -0.05700
C2315       C  0.64910101  0.37140696  0.27719788    -0.23900
C2316       C  0.64539884  0.36603964  0.25755407     0.18400
C2317       C  0.66546212  0.35849152  0.24769002     0.15600
C2318       C  0.68901430  0.35644260  0.25769915    -0.18900
C2319       C  0.66199420  0.35372347  0.22794973    -0.20700
C2320       C  0.63871554  0.35650811  0.21802752    -0.13300
C2321       C  0.61855800  0.36373655  0.22782948     0.03400
C2322       C  0.62214054  0.36849946  0.24759661    -0.25400
H2323       H  0.67590246  0.37464274  0.30214390     0.08500
H2324       H  0.63381172  0.37728581  0.28488141     0.12100
H2325       H  0.70470697  0.35112392  0.24999947     0.12000
H2326       H  0.67734849  0.34800800  0.22020837     0.11800
H2327       H  0.63624249  0.35269249  0.20282448     0.12300
H2328       H  0.60699094  0.37454943  0.25531916     0.14300
C2329       C  0.74250984  0.27901029  0.30950129    -0.05800
C2330       C  0.75869259  0.26392800  0.30350655    -0.05700
C2331       C  0.74913776  0.23337881  0.30927963    -0.23900
C2332       C  0.72309125  0.21734948  0.32101147     0.18400
C2333       C  0.70593388  0.23184940  0.32654952     0.15600
C2334       C  0.71577065  0.26255917  0.32079382    -0.18900
C2335       C  0.67960805  0.21560444  0.33806076    -0.20700
C2336       C  0.67082174  0.18549747  0.34445002    -0.13300
C2337       C  0.68837761  0.17130000  0.33955264     0.03400
C2338       C  0.71427846  0.18728685  0.32758127    -0.25400
H2339       H  0.77929077  0.27607006  0.29482003     0.08500
H2340       H  0.76242664  0.22247463  0.30482523     0.12100
H2341       H  0.70282379  0.27379249  0.32534152     0.12000
H2342       H  0.66610603  0.22636322  0.34235708     0.11800
H2343       H  0.65083975  0.17368104  0.35364784     0.12300
H2344       H  0.72784006  0.17645728  0.32351433     0.14300
C2345       C  0.72523359  0.01931298  0.36312830    -0.05800
C2346       C  0.71543818  0.99105420  0.37274395    -0.05700
C2347       C  0.72732096  0.97160835  0.36781440    -0.23900
C2348       C  0.74927451  0.98026218  0.35327880     0.18400
C2349       C  0.75999987  0.00907571  0.34392606     0.15600
C2350       C  0.74792511  0.02837778  0.34890915    -0.18900
C2351       C  0.78206862  0.01776212  0.32945063    -0.20700
C2352       C  0.79245715  0.49741590  0.32372311    -0.13300
C2353       C  0.78096614  0.46816438  0.33244379     0.03400
C2354       C  0.75998255  0.46016100  0.34758107    -0.25400
H2355       H  0.69808044  0.98367185  0.38375688     0.08500
H2356       H  0.71896111  0.94957782  0.37514538     0.12100
H2357       H  0.75601404  0.05037222  0.34156194     0.12000
H2358       H  0.79066392  0.03991832  0.32223385     0.11800
H2359       H  0.80864942  0.50413630  0.31207879     0.12300
H2360       H  0.75114136  0.43779940  0.35460081     0.14300
C2361       C  0.86649462  0.07307104  0.75409532    -0.05800
C2362       C  0.84641722  0.07814084  0.76571424    -0.05700
C2363       C  0.83048344  0.05768964  0.78062762    -0.23900
C2364       C  0.83483257  0.03215733  0.78449860     0.18400
C2365       C  0.85512135  0.02700211  0.77295058     0.15600
C2366       C  0.87033230  0.04711239  0.75770928    -0.18900
C2367       C  0.86056623  0.00231170  0.77715993    -0.20700
C2368       C  0.84672288  0.48334622  0.79290490    -0.13300
C2369       C  0.82642638  0.48806746  0.80442920     0.03400
C2370       C  0.82007668  0.51220946  0.79998570    -0.25400
H2371       H  0.84300762  0.09792709  0.76324037     0.08500
H2372       H  0.81518012  0.06218254  0.78935299     0.12100
H2373       H  0.88604829  0.04312364  0.74903697     0.12000
H2374       H  0.87615624  0.99810772  0.76851949     0.11800
H2375       H  0.85193307  0.46493398  0.79617423     0.12300
H2376       H  0.80478558  0.51624532  0.80903487     0.14300
C2377       C  0.68117471  0.05723900  0.83480590    -0.05800
C2378       C  0.66746837  0.02786206  0.82590377    -0.05700
C2379       C  0.67761992  0.50676788  0.83045139    -0.23900
C2380       C  0.70149358  0.01467392  0.84405185     0.18400
C2381       C  0.71453416  0.04361182  0.85367541     0.15600
C2382       C  0.70430314  0.06472215  0.84897875    -0.18900
C2383       C  0.73817216  0.05125511  0.86744446    -0.20700
C2384       C  0.74948346  0.03077456  0.87122439    -0.13300
C2385       C  0.73744573  0.50249007  0.86118783     0.03400
C2386       C  0.71302965  0.49439707  0.84784784    -0.25400
H2387       H  0.64976065  0.02166983  0.81488259     0.08500
H2388       H  0.66731414  0.48457880  0.82301690     0.12100
H2389       H  0.71486961  0.08726390  0.85603300     0.12000
H2390       H  0.74829230  0.07329494  0.87503045     0.11800
H2391       H  0.76821763  0.03744087  0.88159347     0.12300
H2392       H  0.70322283  0.47242637  0.84018486     0.14300
C2393       C  0.71523459  0.24233040  0.80187086    -0.05800
C2394       C  0.69727505  0.25591783  0.79614558    -0.05700
C2395       C  0.70738144  0.28717275  0.80055681    -0.23900
C2396       C  0.73557386  0.30513132  0.81068509     0.18400
C2397       C  0.75456704  0.29204045  0.81544096     0.15600
C2398       C  0.74434705  0.26087425  0.81093953    -0.18900
C2399       C  0.78289765  0.30988858  0.82534696    -0.20700
C2400       C  0.79166386  0.34003463  0.83139383    -0.13300
C2401       C  0.77215823  0.35270177  0.82769299     0.03400
C2402       C  0.74452909  0.33545489  0.81683157    -0.25400
H2403       H  0.67485170  0.24204854  0.78902992     0.08500
H2404       H  0.69269130  0.29696338  0.79662132     0.12100
H2405       H  0.75866144  0.25073098  0.81508809     0.12000
H2406       H  0.79778354  0.30017463  0.82894914     0.11800
H2407       H  0.81307079  0.35292986  0.83966962     0.12300
H2408       H  0.72954896  0.34524328  0.81367002     0.14300
C2409       C  0.82652535  0.40364321  0.91346796    -0.05800
C2410       C  0.82573364  0.37517864  0.91006726    -0.05700
C2411       C  0.83027953  0.35890028  0.92499153    -0.23900
C2412       C  0.83617972  0.37103869  0.94353559     0.18400
C2413       C  0.83722411  0.39975327  0.94699796     0.15600
C2414       C  0.83209290  0.41560625  0.93206106    -0.18900
C2415       C  0.84373420  0.41243149  0.96533213    -0.20700
C2416       C  0.84965279  0.39712968  0.98010602    -0.13300
C2417       C  0.84871801  0.36854632  0.97697634     0.03400
C2418       C  0.84150418  0.35532989  0.95863082    -0.25400
H2419       H  0.82123313  0.36531680  0.89589712     0.08500
H2420       H  0.82940173  0.33695165  0.92200401     0.12100
H2421       H  0.83292909  0.43759536  0.93489830     0.12000
H2422       H  0.84458679  0.43440087  0.96822347     0.11800
H2423       H  0.85481041  0.40765757  0.99410990     0.12300
H2424       H  0.84083033  0.33336457  0.95602376     0.14300
C2425       C  0.50368521  0.16810200  0.02716932    -0.05800
C2426       C  0.51680158  0.18477199  0.04415492    -0.05700
C2427       C  0.50056397  0.17483660  0.06130214    -0.23900
C2428       C  0.97047979  0.14842926  0.06176332     0.18400
C2429       C  0.95689984  0.13191955  0.04466553     0.15600
C2430       C  0.97369658  0.14149234  0.02763314    -0.18900
C2431       C  0.92653703  0.10622394  0.04479109    -0.20700
C2432       C  0.90967426  0.09695929  0.06158690    -0.13300
C2433       C  0.92283175  0.11268820  0.07883770     0.03400
C2434       C  0.95357122  0.13838308  0.07887582    -0.25400
H2435       H  0.53987378  0.20533628  0.04421431     0.08500
H2436       H  0.51143493  0.18799080  0.07416373     0.12100
H2437       H  0.96310280  0.12864042  0.01462347     0.12000
H2438       H  0.91569044  0.09333622  0.03184167     0.11800
H2439       H  0.88625019  0.07690638  0.06111604     0.12300
H2440       H  0.96398496  0.15080683  0.09202343     0.14300
C2441       C  0.57029765  0.16021201  0.91401402    -0.05800
C2442       C  0.55088424  0.14701677  0.89794874    -0.05700
C2443       C  0.56195721  0.13958213  0.88182043    -0.23900
C2444       C  0.59295011  0.14580814  0.88124283     0.18400
C2445       C  0.61303948  0.15958095  0.89715418     0.15600
C2446       C  0.60141523  0.16622726  0.91363336    -0.18900
C2447       C  0.64442032  0.16679643  0.89611288    -0.20700
C2448       C  0.65565398  0.16035529  0.87952658    -0.13300
C2449       C  0.63554277  0.14593684  0.86386221     0.03400
C2450       C  0.60416704  0.13870554  0.86489527    -0.25400
H2451       H  0.52687593  0.14219666  0.89793239     0.08500
H2452       H  0.54632363  0.12922236  0.86970969     0.12100
H2453       H  0.61669293  0.17685133  0.92586444     0.12000
H2454       H  0.66030353  0.17757427  0.90806555     0.11800
H2455       H  0.67993665  0.16616047  0.87904825     0.12300
H2456       H  0.58856557  0.12803530  0.85279092     0.14300
C2457       C  0.88382618  0.02869224  0.89179327    -0.05800
C2458       C  0.91195489  0.52805209  0.89376660    -0.05700
C2459       C  0.93548218  0.04855534  0.90627589    -0.23900
C2460       C  0.93122877  0.06996329  0.91703724     0.18400
C2461       C  0.90338074  0.07133665  0.91478472     0.15600
C2462       C  0.88003689  0.05089766  0.90213556    -0.18900
C2463       C  0.89923916  0.09303345  0.92529489    -0.20700
C2464       C  0.92294696  0.11391243  0.93751101    -0.13300
C2465       C  0.95082744  0.11292627  0.93971786     0.03400
C2466       C  0.95458166  0.09045700  0.92972313    -0.25400
H2467       H  0.91531834  0.51092340  0.88618886     0.08500
H2468       H  0.95678534  0.04733027  0.90775593     0.12100
H2469       H  0.85843440  0.05162860  0.90086089     0.12000
H2470       H  0.87799901  0.09435809  0.92372168     0.11800
H2471       H  0.91988410  0.13142150  0.94486608     0.12300
H2472       H  0.97641564  0.09015510  0.93096116     0.14300
C2473       C  0.70335902  0.37476522  0.89783774    -0.05800
C2474       C  0.71356996  0.36801139  0.91508847    -0.05700
C2475       C  0.69232162  0.34627255  0.92769654    -0.23900
C2476       C  0.66031068  0.33083960  0.92337306     0.18400
C2477       C  0.64974842  0.33696312  0.90589622     0.15600
C2478       C  0.67138182  0.35874580  0.89312676    -0.18900
C2479       C  0.61769483  0.32129287  0.90156437    -0.20700
C2480       C  0.59647380  0.29938277  0.91417576    -0.13300
C2481       C  0.60678672  0.29292839  0.93146652     0.03400
C2482       C  0.63875411  0.30911397  0.93614268    -0.25400
H2483       H  0.73823114  0.37985403  0.91893672     0.08500
H2484       H  0.70092919  0.34174051  0.94088790     0.12100
H2485       H  0.66333537  0.36389864  0.87991711     0.12000
H2486       H  0.60906253  0.32566573  0.88833431     0.11800
H2487       H  0.57183210  0.28711186  0.91029728     0.12300
H2488       H  0.64690605  0.30394645  0.94931175     0.14300
C2489       C  0.93224480  0.31159791  0.00000475    -0.05800
C2490       C  0.96170610  0.32504376  0.00904604    -0.05700
C2491       C  0.98307289  0.31548436  0.00421048    -0.23900
C2492       C  0.97527656  0.29263609  0.99014088     0.18400
C2493       C  0.94631657  0.28039273  0.98026404     0.15600
C2494       C  0.92496311  0.28986657  0.98532147    -0.18900
C2495       C  0.93869297  0.25803469  0.96595797    -0.20700
C2496       C  0.95905286  0.24693168  0.96193621    -0.13300
C2497       C  0.48720982  0.25781698  0.97227847     0.03400
C2498       C  0.49547924  0.28115063  0.98614404    -0.25400
H2499       H  0.96752275  0.34170257  0.02050262     0.08500
H2500       H  0.50526271  0.32526992  0.01182832     0.12100
H2501       H  0.90225659  0.27964098  0.97824618     0.12000
H2502       H  0.91669636  0.24865333  0.95815832     0.11800
H2503       H  0.95230199  0.22911068  0.95110792     0.12300
H2504       H  0.51740370  0.29006564  0.99398982     0.14300
C2505       C  0.74293743  0.26638277  0.02751950    -0.05800
C2506       C  0.72520656  0.27505696  0.03878266    -0.05700
C2507       C  0.69345790  0.26352626  0.03466487    -0.23900
C2508       C  0.67900304  0.24292001  0.01936179     0.18400
C2509       C  0.69620013  0.23246492  0.00876870     0.15600
C2510       C  0.72803695  0.24436580  0.01286407    -0.18900
C2511       C  0.68156609  0.21118706  0.99378766    -0.20700
C2512       C  0.65062158  0.20174057  0.98862631    -0.13300
C2513       C  0.63421344  0.21380407  0.99822093     0.03400
C2514       C  0.64810512  0.23364836  0.01392175    -0.25400
H2515       H  0.73616141  0.29166637  0.05029415     0.08500
H2516       H  0.68045269  0.27138944  0.04309629     0.12100
H2517       H  0.74138229  0.23694708  0.00438039     0.12000
H2518       H  0.69436077  0.20270440  0.98567345     0.11800
H2519       H  0.64008895  0.18642427  0.97648535     0.12300
H2520       H  0.63519555  0.24267040  0.02144039     0.14300
Fe2521     Fe  0.56260847  0.73691739  0.98341241     1.65800
Fe2522     Fe  0.52291238  0.70447938  0.94218143     1.73200
Fe2523     Fe  0.54073539  0.66172914  0.97172718     1.54400
O2524       O  0.58262264  0.68110357  0.98685044    -0.82200
O2525       O  0.48145385  0.66561570  0.94817994    -0.80500
O2526       O  0.60107702  0.73224940  0.98793756    -0.84700
O2527       O  0.53955096  0.70795747  0.00658780    -0.79600
O2528       O  0.56523067  0.66486404  0.94733328    -0.81300
O2529       O  0.50434448  0.72993256  0.95349445    -0.84100
C2530       C  0.52091240  0.67865215  0.00896906     0.96700
C2531       C  0.60412561  0.70861791  0.99065243     1.04100
O2532       O  0.54241872  0.70143732  0.96583059    -1.13100
O2533       O  0.56219872  0.74415979  0.93447884    -0.75500
O2534       O  0.58710669  0.76818099  0.96142157    -0.79000
O2535       O  0.51636214  0.65812292  0.99637808    -0.79700
C2536       C  0.58415661  0.76704016  0.94332543     0.95600
O2537       O  0.52716937  0.74727741  0.98165326    -0.77600
O2538       O  0.53915427  0.67912917  0.92719386    -0.82800
C2539       C  0.97809436  0.63866012  0.94934302     0.98200
C2540       C  0.55783824  0.66873427  0.93054447     1.04100
O2541       O  0.49903669  0.63401145  0.95677503    -0.78500
C2542       C  0.50749134  0.74430164  0.96892064     1.02400
Fe2543     Fe  0.75497177  0.92685817  0.84637553     1.65800
Fe2544     Fe  0.78986562  0.96115837  0.88838838     1.73200
Fe2545     Fe  0.82922308  0.94232354  0.85733202     1.54400
O2546       O  0.80726182  0.90175626  0.84147168    -0.82200
O2547       O  0.83035760  0.00152658  0.88350517    -0.80500
O2548       O  0.75737862  0.88838560  0.83854105    -0.84700
O2549       O  0.78438615  0.95386558  0.82428298    -0.79600
O2550       O  0.82472764  0.91530634  0.88079342    -0.81300
O2551       O  0.76662619  0.98389501  0.87862223    -0.84100
C2552       C  0.81407123  0.96908784  0.82175873     0.96700
C2553       C  0.77945897  0.88282033  0.83625514     1.04100
O2554       O  0.79108456  0.94334329  0.86387803    -1.13100
O2555       O  0.74935586  0.92209617  0.89496540    -0.75500
O2556       O  0.72420772  0.89919971  0.86783133    -0.79000
O2557       O  0.83400229  0.96848759  0.83333160    -0.79700
C2558       C  0.72667890  0.90015680  0.88596456     0.95600
O2559       O  0.74559716  0.96206115  0.85090241    -0.77600
O2560       O  0.81295582  0.94078026  0.90226875    -0.82800
C2561       C  0.85661044  0.00329902  0.88166452     0.98200
C2562       C  0.82105859  0.92077686  0.89789996     1.04100
O2563       O  0.85936982  0.98235087  0.87292946    -0.78500
C2564       C  0.75072374  0.98167937  0.86383320     1.02400
Fe2565     Fe  0.76130265  0.87361597  0.32134150     1.65800
Fe2566     Fe  0.78122242  0.86536123  0.27721786     1.73200
Fe2567     Fe  0.83121626  0.92794652  0.30390785     1.54400
O2568       O  0.80950495  0.95226187  0.31271496    -0.82200
O2569       O  0.82613566  0.87527073  0.27264664    -0.80500
O2570       O  0.77246572  0.91707064  0.33107449    -0.84700
O2571       O  0.79372294  0.87277810  0.33978205    -0.79600
O2572       O  0.83003037  0.94306017  0.27634703    -0.81300
O2573       O  0.77295669  0.82518590  0.29137340    -0.84100
C2574       C  0.82234955  0.89331989  0.34241145     0.96700
C2575       C  0.78844021  0.94472436  0.32503251     1.04100
O2576       O  0.79154964  0.88905863  0.30084343    -1.13100
O2577       O  0.73472653  0.85228139  0.27820372    -0.75500
O2578       O  0.72826681  0.87484284  0.30365709    -0.79000
O2579       O  0.83717960  0.91665167  0.33148014    -0.79700
C2580       C  0.72001506  0.86304520  0.28714840     0.95600
O2581       O  0.74470573  0.82705288  0.31508759    -0.77600
O2582       O  0.78876230  0.90401333  0.26147817    -0.82800
C2583       C  0.85222168  0.89016773  0.28126292     0.98200
C2584       C  0.81100401  0.93221512  0.26227527     1.04100
O2585       O  0.85669080  0.90764800  0.29543474    -0.78500
C2586       C  0.75409976  0.81225304  0.30494183     1.02400
Fe2587     Fe  0.56157900  0.87346532  0.18230855     1.65800
Fe2588     Fe  0.53510377  0.87181622  0.22721725     1.73200
Fe2589     Fe  0.54724651  0.93121267  0.19719151     1.54400
O2590       O  0.59022289  0.95295715  0.18434597    -0.82200
O2591       O  0.49747909  0.87759613  0.22926214    -0.80500
O2592       O  0.59690784  0.91514824  0.17256603    -0.84700
O2593       O  0.52990683  0.87391162  0.16261775    -0.79600
O2594       O  0.57074517  0.95228870  0.22238396    -0.81300
O2595       O  0.50559611  0.82784725  0.21556658    -0.84100
C2596       C  0.51757095  0.89115235  0.16058118     0.96700
C2597       C  0.60582915  0.94374103  0.17495542     1.04100
O2598       O  0.54799505  0.89224331  0.20225502    -1.13100
O2599       O  0.57149433  0.86365247  0.22861407    -0.75500
O2600       O  0.59413325  0.87140338  0.20041306    -0.79000
O2601       O  0.52342401  0.91367985  0.17176352    -0.79700
C2602       C  0.59326635  0.86620497  0.21815361     0.95600
O2603       O  0.52888863  0.82838998  0.18869546    -0.77600
O2604       O  0.56252548  0.91347563  0.24213771    -0.82800
C2605       C  0.98887173  0.89549569  0.22199252     0.98200
C2606       C  0.57408568  0.94244676  0.23848700     1.04100
O2607       O  0.50417143  0.91559635  0.20944251    -0.78500
C2608       C  0.50817948  0.81418361  0.20104588     1.02400
Fe2609     Fe  0.83964717  0.59390357  0.15414870     1.65800
Fe2610     Fe  0.83465157  0.56332593  0.11011479     1.73200
Fe2611     Fe  0.89840768  0.58181311  0.13865460     1.54400
O2612       O  0.91974378  0.62606455  0.15051220    -0.82200
O2613       O  0.84057433  0.52523940  0.10968108    -0.80500
O2614       O  0.88152683  0.63003685  0.16390480    -0.84700
O2615       O  0.84155687  0.56326676  0.17355367    -0.79600
O2616       O  0.91664783  0.60269159  0.11240111    -0.81300
O2617       O  0.79168435  0.53559652  0.12229805    -0.84100
C2618       C  0.86107625  0.55375379  0.17628703     0.96700
C2619       C  0.91022354  0.64064867  0.16071599     1.04100
O2620       O  0.85766357  0.57964532  0.13427677    -1.13100
O2621       O  0.82677646  0.60026251  0.10766068    -0.75500
O2622       O  0.83666527  0.62492162  0.13562530    -0.79000
O2623       O  0.88397248  0.56058445  0.16523533    -0.79700
C2624       C  0.83031412  0.62292474  0.11791991     0.95600
O2625       O  0.79395426  0.56127808  0.14846539    -0.77600
O2626       O  0.87420117  0.58782298  0.09409354    -0.82800
C2627       C  0.86179238  0.51985391  0.11566087     0.98200
C2628       C  0.90370735  0.60099104  0.09630106     1.04100
O2629       O  0.88367846  0.53822235  0.12686548    -0.78500
C2630       C  0.77881760  0.53979894  0.13649749     1.02400
Fe2631     Fe  0.83809965  0.79045594  0.01363303     1.65800
Fe2632     Fe  0.83416422  0.81545089  0.05795093     1.73200
Fe2633     Fe  0.89349162  0.86225933  0.02964010     1.54400
O2634       O  0.91486566  0.84441837  0.01274016    -0.82200
O2635       O  0.83137062  0.85514173  0.05554838    -0.80500
O2636       O  0.88037125  0.79429060  0.00820105    -0.84700
O2637       O  0.84416448  0.82366672  0.99291638    -0.79600
O2638       O  0.91506543  0.85435340  0.05238668    -0.81300
O2639       O  0.78906899  0.79138157  0.04667630    -0.84100
C2640       C  0.85575078  0.85334408  0.99300782     0.96700
C2641       C  0.90777078  0.81728015  0.00725915     1.04100
O2642       O  0.85504544  0.82243768  0.03360981    -1.13100
O2643       O  0.83486215  0.77513530  0.06170848    -0.75500
O2644       O  0.83056056  0.75485275  0.03275892    -0.79000
O2645       O  0.87300232  0.87085823  0.00650425    -0.79700
C2646       C  0.83159824  0.75330239  0.05084000     0.95600
O2647       O  0.79319344  0.78147590  0.01646093    -0.77600
O2648       O  0.87664348  0.83825534  0.07333924    -0.82800
C2649       C  0.85445377  0.88235593  0.05414513     0.98200
C2650       C  0.90519223  0.84799301  0.06923176     1.04100
O2651       O  0.88000291  0.88784954  0.04668205    -0.78500
C2652       C  0.77705698  0.78066176  0.03045856     1.02400
Fe2653     Fe  0.70154323  0.65160275  0.82028593     1.65800
Fe2654     Fe  0.67041571  0.64915257  0.77679015     1.73200
Fe2655     Fe  0.62587571  0.59654884  0.80990745     1.54400
O2656       O  0.64780831  0.57249854  0.81934031    -0.82200
O2657       O  0.62517965  0.63946355  0.77459907    -0.80500
O2658       O  0.69370258  0.60952396  0.83102839    -0.84700
O2659       O  0.67508053  0.65583981  0.84143875    -0.79600
O2660       O  0.61894786  0.57424739  0.78371285    -0.81300
O2661       O  0.68289327  0.69298663  0.78710239    -0.84100
C2662       C  0.64683453  0.63837189  0.84635778     0.96700
C2663       C  0.67351249  0.58105869  0.82816744     1.04100
O2664       O  0.66587693  0.63245588  0.80247066    -1.13100
O2665       O  0.71635364  0.66145907  0.77423538    -0.75500
O2666       O  0.73166617  0.64910968  0.80104609    -0.79000
O2667       O  0.62746072  0.61467089  0.83668750    -0.79700
C2668       C  0.73560053  0.65674321  0.78365602     0.95600
O2669       O  0.71384493  0.69613457  0.81149217    -0.77600
O2670       O  0.65829638  0.60627155  0.76505675    -0.82800
C2671       C  0.60148666  0.62942823  0.78503783     0.98200
C2672       C  0.63461775  0.57979871  0.76854027     1.04100
O2673       O  0.60002494  0.61696240  0.80102103    -0.78500
C2674       C  0.70320675  0.70852450  0.79989377     1.02400
Fe2675     Fe  0.89769316  0.65719357  0.68075809     1.65800
Fe2676     Fe  0.92313350  0.66246527  0.72591526     1.73200
Fe2677     Fe  0.91350311  0.60260958  0.69838977     1.54400
O2678       O  0.86855927  0.57869662  0.68766461    -0.82200
O2679       O  0.95644731  0.65050342  0.73300835    -0.80500
O2680       O  0.86549280  0.61436363  0.66992743    -0.84700
O2681       O  0.93196089  0.65916191  0.66297339    -0.79600
O2682       O  0.89462900  0.58584542  0.72519145    -0.81300
O2683       O  0.95705202  0.70218924  0.71292807    -0.84100
C2684       C  0.94167480  0.63976448  0.66081027     0.96700
C2685       C  0.85439517  0.58654166  0.67563350     1.04100
O2686       O  0.91157349  0.64059715  0.70160091    -1.13100
O2687       O  0.89154531  0.67800915  0.72310567    -0.75500
O2688       O  0.86242911  0.65513343  0.69750901    -0.79000
O2689       O  0.93335673  0.61615509  0.67161194    -0.79700
C2690       C  0.86580919  0.66673699  0.71402429     0.95600
O2691       O  0.92785405  0.70284764  0.68864319    -0.77600
O2692       O  0.88962299  0.62328327  0.73977597    -0.82800
C2693       C  0.96918699  0.63743038  0.72436483     0.98200
C2694       C  0.88440398  0.59532226  0.73873341     1.04100
O2695       O  0.95836127  0.62271599  0.70892811    -0.78500
C2696       C  0.95212496  0.71609189  0.69923544     1.02400
Fe2697     Fe  0.89451567  0.79450835  0.48708219     1.65800
Fe2698     Fe  0.93261472  0.83193703  0.44714030     1.73200
Fe2699     Fe  0.91181771  0.86923563  0.47838021     1.54400
O2700       O  0.86986418  0.84610709  0.49260003    -0.82200
O2701       O  0.97289328  0.87102122  0.45492457    -0.80500
O2702       O  0.85422682  0.79557946  0.49101448    -0.84700
O2703       O  0.91558373  0.82175695  0.51141679    -0.79600
O2704       O  0.88665977  0.86634741  0.45433877    -0.81300
O2705       O  0.95308919  0.80662102  0.45726835    -0.84100
C2706       C  0.93272946  0.85106139  0.51471755     0.96700
C2707       C  0.84937508  0.81772339  0.49486691     1.04100
O2708       O  0.91285876  0.83157014  0.47096666    -1.13100
O2709       O  0.89368736  0.79275730  0.43791402    -0.75500
O2710       O  0.87199588  0.76470828  0.46400283    -0.79000
O2711       O  0.93614442  0.87201179  0.50280018    -0.79700
C2712       C  0.87304120  0.76836931  0.44601564     0.95600
O2713       O  0.93207722  0.78779543  0.48533280    -0.77600
O2714       O  0.91464400  0.85734297  0.43327150    -0.82800
C2715       C  0.97516873  0.89739992  0.45718472     0.98200
C2716       C  0.89365014  0.86424742  0.43736180     1.04100
O2717       O  0.95342110  0.90017529  0.46476679    -0.78500
C2718       C  0.95138568  0.79202484  0.47247172     1.02400
Fe2719     Fe  0.70493848  0.59462733  0.35312891     1.65800
Fe2720     Fe  0.67702500  0.55910690  0.39564597     1.73200
Fe2721     Fe  0.63369082  0.58033208  0.36870264     1.54400
O2722       O  0.65394409  0.62210303  0.35369128    -0.82200
O2723       O  0.63570370  0.51912010  0.39092764    -0.80500
O2724       O  0.70251081  0.63384488  0.34771403    -0.84700
O2725       O  0.67178300  0.56883171  0.33162697    -0.79600
O2726       O  0.64154074  0.60587049  0.39346220    -0.81300
O2727       O  0.69870597  0.53699729  0.38317874    -0.84100
C2728       C  0.64176692  0.55280361  0.33100492     0.96700
C2729       C  0.68099428  0.64058109  0.34743562     1.04100
O2730       O  0.67228342  0.57838806  0.37243631    -1.13100
O2731       O  0.71905742  0.59743236  0.40154518    -0.75500
O2732       O  0.73932190  0.62066232  0.37377022    -0.79000
O2733       O  0.62460837  0.55423106  0.34398389    -0.79700
C2734       C  0.74065640  0.61881467  0.39186572     0.95600
O2735       O  0.71413355  0.55884740  0.35499838    -0.77600
O2736       O  0.65561991  0.57831268  0.41226355    -0.82800
C2737       C  0.60948339  0.51778774  0.39071784     0.98200
C2738       C  0.64576230  0.59767263  0.40990129     1.04100
O2739       O  0.60578121  0.53967202  0.38401550    -0.78500
C2740       C  0.71176227  0.53940227  0.36742811     1.02400
Fe2741     Fe  0.62064019  0.93180260  0.65088734     1.65800
Fe2742     Fe  0.62193642  0.97189131  0.61147989     1.73200
Fe2743     Fe  0.56335537  0.94998278  0.64268521     1.54400
O2744       O  0.54468758  0.90787721  0.65665675    -0.82200
O2745       O  0.62239705  0.01171548  0.61945252    -0.80500
O2746       O  0.57925652  0.89177869  0.65476775    -0.84700
O2747       O  0.61572385  0.95305256  0.67510861    -0.79600
O2748       O  0.54070063  0.92631851  0.61807160    -0.81300
O2749       O  0.66735692  0.99184657  0.62174864    -0.84100
C2750       C  0.60401013  0.97045905  0.67871287     0.96700
C2751       C  0.55240604  0.88713928  0.65872551     1.04100
O2752       O  0.60206436  0.95099357  0.63504222    -1.13100
O2753       O  0.62306076  0.93355966  0.60176598    -0.75500
O2754       O  0.62740077  0.90980375  0.62775010    -0.79000
O2755       O  0.58511731  0.97351483  0.66749210    -0.79700
C2756       C  0.62614969  0.91216622  0.60975338     0.95600
O2757       O  0.66471821  0.96879070  0.64927009    -0.77600
O2758       O  0.57895077  0.95492444  0.59779818    -0.82800
C2759       C  0.59759256  0.01299670  0.62111288     0.98200
C2760       C  0.55042956  0.93548452  0.60134228     1.04100
O2761       O  0.57375349  0.99147270  0.62922684    -0.78500
C2762       C  0.67993578  0.98900061  0.63685773     1.02400
Fe2763     Fe  0.61776263  0.73813037  0.51844118     1.65800
Fe2764     Fe  0.62009312  0.70366690  0.55983459     1.73200
Fe2765     Fe  0.56119722  0.66399987  0.52849650     1.54400
O2766       O  0.54157758  0.68584510  0.51276745    -0.82200
O2767       O  0.62107330  0.66399527  0.55366970    -0.80500
O2768       O  0.57623974  0.73640723  0.51318071    -0.84700
O2769       O  0.61221967  0.70913087  0.49519781    -0.79600
O2770       O  0.53934356  0.66863477  0.55206514    -0.81300
O2771       O  0.66534586  0.72753725  0.54965849    -0.84100
C2772       C  0.60118999  0.67972609  0.49278754     0.96700
C2773       C  0.54914129  0.71403675  0.50969196     1.04100
O2774       O  0.59981371  0.70231307  0.53555673    -1.13100
O2775       O  0.62178376  0.74409744  0.56743417    -0.75500
O2776       O  0.62499509  0.76949910  0.54046533    -0.79000
O2777       O  0.58302697  0.65936345  0.50470586    -0.79700
C2778       C  0.62477635  0.76779165  0.55857166     0.95600
O2779       O  0.66206259  0.74566822  0.52132307    -0.77600
O2780       O  0.57695840  0.67984012  0.57384743    -0.82800
C2781       C  0.59724012  0.63758895  0.55118417     0.98200
C2782       C  0.54886068  0.67239298  0.56926991     1.04100
O2783       O  0.57217888  0.63423162  0.54368127    -0.78500
C2784       C  0.67755064  0.74171585  0.53436551     1.02400
C2785       C  0.59479078  0.53762115  0.61094889    -0.05800
C2786       C  0.56894251  0.54179437  0.61385764    -0.05700
C2787       C  0.56298997  0.56064354  0.60165207    -0.23900
C2788       C  0.58264752  0.57536213  0.58627126     0.18400
C2789       C  0.60897642  0.57166831  0.58339639     0.15600
C2790       C  0.61497369  0.55304696  0.59580932    -0.18900
C2791       C  0.62897246  0.58679558  0.56820228    -0.20700
C2792       C  0.62383811  0.60677737  0.55655548    -0.13300
C2793       C  0.59806882  0.61094016  0.55957156     0.03400
C2794       C  0.57701992  0.59452063  0.57406799    -0.25400
H2795       H  0.55281321  0.02974921  0.62524468     0.08500
H2796       H  0.54282132  0.56340520  0.60410205     0.12100
H2797       H  0.63466479  0.54955684  0.59316531     0.12000
H2798       H  0.64921642  0.58413896  0.56579825     0.11800
H2799       H  0.64061128  0.61995698  0.54566728     0.12300
H2800       H  0.55767844  0.59857537  0.57673853     0.14300
C2801       C  0.62771539  0.88884529  0.59741064    -0.05800
C2802       C  0.62480747  0.89019269  0.57754852    -0.05700
C2803       C  0.62460269  0.86735653  0.56583432    -0.23900
C2804       C  0.62724332  0.84270275  0.57374919     0.18400
C2805       C  0.63063931  0.84142365  0.59366059     0.15600
C2806       C  0.63096119  0.86447604  0.60532876    -0.18900
C2807       C  0.63315468  0.81681099  0.60165938    -0.20700
C2808       C  0.63174644  0.79334243  0.59010712    -0.13300
C2809       C  0.62788536  0.79399984  0.57027620     0.03400
C2810       C  0.62602813  0.81905224  0.56214621    -0.25400
H2811       H  0.62225552  0.90871709  0.57100967     0.08500
H2812       H  0.62199964  0.86878425  0.55062460     0.12100
H2813       H  0.63322630  0.86310823  0.62058234     0.12000
H2814       H  0.63584231  0.81549339  0.61687324     0.11800
H2815       H  0.63345382  0.77445384  0.59682360     0.12300
H2816       H  0.62298885  0.81982413  0.54692221     0.14300
C2817       C  0.61046989  0.66890167  0.47555035    -0.05800
C2818       C  0.62315546  0.68864476  0.45976000    -0.05700
C2819       C  0.63258424  0.67883176  0.44373887    -0.23900
C2820       C  0.63005725  0.64921858  0.44323565     0.18400
C2821       C  0.61799080  0.62941264  0.45915591     0.15600
C2822       C  0.60795999  0.63917282  0.47505119    -0.18900
C2823       C  0.61629752  0.60018984  0.45895968    -0.20700
C2824       C  0.62615941  0.59052581  0.44313334    -0.13300
C2825       C  0.63743809  0.60956654  0.42696951     0.03400
C2826       C  0.63933147  0.63903215  0.42713531    -0.25400
H2827       H  0.62561495  0.71170759  0.45973001     0.08500
H2828       H  0.64199222  0.69449659  0.43176278     0.12100
H2829       H  0.59876100  0.62381886  0.48718866     0.12000
H2830       H  0.60725111  0.58472048  0.47104893     0.11800
H2831       H  0.62416801  0.56765132  0.44334611     0.12300
H2832       H  0.64815949  0.65403452  0.41482347     0.14300
C2833       C  0.94990871  0.86166866  0.53306345    -0.05800
C2834       C  0.94295308  0.84130587  0.54856787    -0.05700
C2835       C  0.96000230  0.85191555  0.56566123    -0.23900
C2836       C  0.98452040  0.88292760  0.56741067     0.18400
C2837       C  0.99140881  0.90343630  0.55186105     0.15600
C2838       C  0.97401593  0.89281156  0.53498988    -0.18900
C2839       C  0.01609183  0.93421298  0.55318672    -0.20700
C2840       C  0.53453028  0.94446555  0.56957029    -0.13300
C2841       C  0.52842441  0.92432425  0.58506204     0.03400
C2842       C  0.00287588  0.89367653  0.58413690    -0.25400
H2843       H  0.92435309  0.81721784  0.54748619     0.08500
H2844       H  0.95432204  0.83578951  0.57738528     0.12100
H2845       H  0.97984737  0.90879795  0.52315919     0.12000
H2846       H  0.02156999  0.95019626  0.54139445     0.11800
H2847       H  0.55390936  0.96825923  0.57007273     0.12300
H2848       H  0.99819170  0.87798129  0.59600734     0.14300
C2849       C  0.58370040  0.49151853  0.40046225    -0.05800
C2850       C  0.58052700  0.46171242  0.39941297    -0.05700
C2851       C  0.55971354  0.43784977  0.41117712    -0.23900
C2852       C  0.54220344  0.94365824  0.42438768     0.18400
C2853       C  0.54525842  0.97361930  0.42560674     0.15600
C2854       C  0.56582772  0.99735246  0.41346790    -0.18900
C2855       C  0.02775791  0.97924100  0.43897495    -0.20700
C2856       C  0.00615136  0.95489187  0.45031402    -0.13300
C2857       C  0.00217230  0.92474986  0.44864821     0.03400
C2858       C  0.52118575  0.91970786  0.43609457    -0.25400
H2859       H  0.59465796  0.45711276  0.38972911     0.08500
H2860       H  0.55759669  0.41496902  0.41011020     0.12100
H2861       H  0.56901254  0.02066784  0.41471795     0.12000
H2862       H  0.03008318  0.00218338  0.44024654     0.11800
H2863       H  0.99174950  0.95935670  0.45983860     0.12300
H2864       H  0.51842889  0.89660641  0.43457992     0.14300
C2865       C  0.76768031  0.64268118  0.40281016    -0.05800
C2866       C  0.77451164  0.63492942  0.42083235    -0.05700
C2867       C  0.79656607  0.65789006  0.43286496    -0.23900
C2868       C  0.81216440  0.68910164  0.42713715     0.18400
C2869       C  0.80614089  0.69708229  0.40882729     0.15600
C2870       C  0.78409713  0.67376926  0.39669300    -0.18900
C2871       C  0.82178259  0.72834323  0.40313558    -0.20700
C2872       C  0.84330507  0.75139244  0.41538400    -0.13300
C2873       C  0.84942667  0.74366127  0.43360917     0.03400
C2874       C  0.83356429  0.71244499  0.43946552    -0.25400
H2875       H  0.76215371  0.61103782  0.42584234     0.08500
H2876       H  0.80097525  0.65129976  0.44677185     0.12100
H2877       H  0.77869055  0.67999148  0.38293742     0.12000
H2878       H  0.81738859  0.73497387  0.38923756     0.11800
H2879       H  0.85509980  0.77541845  0.41059800     0.12300
H2880       H  0.83823799  0.70627987  0.45344154     0.14300
C2881       C  0.97253934  0.77930335  0.47561637    -0.05800
C2882       C  0.00310131  0.79473783  0.46858043    -0.05700
C2883       C  0.52392922  0.78414883  0.47322927    -0.23900
C2884       C  0.01427960  0.75770063  0.48471815     0.18400
C2885       C  0.98308521  0.74114524  0.49107666     0.15600
C2886       C  0.96252518  0.75220056  0.48660426    -0.18900
C2887       C  0.97321350  0.71425125  0.50217615    -0.20700
C2888       C  0.99439330  0.70444151  0.50751411    -0.13300
C2889       C  0.52578235  0.72165995  0.50204346     0.03400
C2890       C  0.53546274  0.74797247  0.49036518    -0.25400
H2891       H  0.01119865  0.81562665  0.46008122     0.08500
H2892       H  0.54771773  0.79694541  0.46812326     0.12100
H2893       H  0.93878527  0.73991209  0.49185771     0.12000
H2894       H  0.94929941  0.70119207  0.50704828     0.11800
H2895       H  0.98659430  0.68420390  0.51658126     0.12300
H2896       H  0.55965330  0.76118540  0.48595547     0.14300
C2897       C  0.81869957  0.80979291  0.50240241    -0.05800
C2898       C  0.80471023  0.82774821  0.49771793    -0.05700
C2899       C  0.77453004  0.81861516  0.50383562    -0.23900
C2900       C  0.75827698  0.79171492  0.51494728     0.18400
C2901       C  0.77277796  0.77428803  0.52037751     0.15600
C2902       C  0.80278915  0.78330292  0.51391692    -0.18900
C2903       C  0.75676186  0.74778547  0.53184893    -0.20700
C2904       C  0.72608990  0.73790929  0.53731942    -0.13300
C2905       C  0.71105296  0.75420768  0.53114709     0.03400
C2906       C  0.72747602  0.78146768  0.52030946    -0.25400
H2907       H  0.81672561  0.84822820  0.48883815     0.08500
H2908       H  0.76373951  0.83228784  0.49965821     0.12100
H2909       H  0.81374978  0.76962637  0.51775891     0.12000
H2910       H  0.76770330  0.73434661  0.53623273     0.11800
H2911       H  0.71366358  0.71680964  0.54563447     0.12300
H2912       H  0.71599019  0.79432060  0.51570832     0.14300
C2913       C  0.52659929  0.66833536  0.58452315    -0.05800
C2914       C  0.00349364  0.67674009  0.58130957    -0.05700
C2915       C  0.98300306  0.67403670  0.59573478    -0.23900
C2916       C  0.98463559  0.66209894  0.61356628     0.18400
C2917       C  0.00746982  0.65310174  0.61686044     0.15600
C2918       C  0.52862385  0.65678924  0.60246928    -0.18900
C2919       C  0.00850122  0.64018923  0.63442669    -0.20700
C2920       C  0.98693188  0.63580075  0.64848206    -0.13300
C2921       C  0.96425761  0.64486911  0.64551559     0.03400
C2922       C  0.96356474  0.65851272  0.62804312    -0.25400
H2923       H  0.00164877  0.68597599  0.56767837     0.08500
H2924       H  0.96566920  0.68101033  0.59287145     0.12100
H2925       H  0.54622744  0.65007102  0.60509194     0.12000
H2926       H  0.52577216  0.63310727  0.63723056     0.11800
H2927       H  0.98821213  0.62556186  0.66185866     0.12300
H2928       H  0.94613451  0.66549044  0.62553992     0.14300
C2929       C  0.97490650  0.74871543  0.69501660    -0.05800
C2930       C  0.00697480  0.76065119  0.69854263    -0.05700
C2931       C  0.52865647  0.79052278  0.69229669    -0.23900
C2932       C  0.01840524  0.80879976  0.68264958     0.18400
C2933       C  0.98603784  0.79728436  0.67969690     0.15600
C2934       C  0.96456580  0.76733389  0.68585464    -0.18900
C2935       C  0.97568290  0.81568143  0.67034954    -0.20700
C2936       C  0.99731088  0.84522901  0.66373618    -0.13300
C2937       C  0.52951363  0.85649524  0.66617359     0.03400
C2938       C  0.53993828  0.83824917  0.67572769    -0.25400
H2939       H  0.01529567  0.74646445  0.70547175     0.08500
H2940       H  0.55341102  0.79912368  0.69473008     0.12100
H2941       H  0.93974933  0.75828373  0.68324240     0.12000
H2942       H  0.95090844  0.80713796  0.66804540     0.11800
H2943       H  0.98890791  0.85901906  0.65638759     0.12300
H2944       H  0.56480958  0.84703662  0.67785220     0.14300
C2945       C  0.71358627  0.00977011  0.64041815    -0.05800
C2946       C  0.73007205  0.03853338  0.63106867    -0.05700
C2947       C  0.76159551  0.05877507  0.63546228    -0.23900
C2948       C  0.77700032  0.55036381  0.64916160     0.18400
C2949       C  0.76074776  0.52109584  0.65824309     0.15600
C2950       C  0.72921254  0.50104797  0.65382489    -0.18900
C2951       C  0.77609227  0.51258788  0.67189083    -0.20700
C2952       C  0.80710973  0.53339801  0.67699291    -0.13300
C2953       C  0.82319081  0.56299002  0.66850935     0.03400
C2954       C  0.80813681  0.57104789  0.65428742    -0.25400
H2955       H  0.71841512  0.04567458  0.62070879     0.08500
H2956       H  0.77378180  0.08114885  0.62836505     0.12100
H2957       H  0.71675747  0.47872738  0.66098499     0.12000
H2958       H  0.76390527  0.49014752  0.67891682     0.11800
H2959       H  0.81814947  0.52669332  0.68802122     0.12300
H2960       H  0.82029811  0.59377422  0.64757831     0.14300
C2961       C  0.61412195  0.98911818  0.69634750    -0.05800
C2962       C  0.64614874  0.00619314  0.70108676    -0.05700
C2963       C  0.65666104  0.52681073  0.71652093    -0.23900
C2964       C  0.63520153  0.53010656  0.72775309     0.18400
C2965       C  0.60274960  0.51162959  0.72373148     0.15600
C2966       C  0.59243425  0.99164272  0.70784371    -0.18900
C2967       C  0.58124072  0.51398050  0.73544457    -0.20700
C2968       C  0.59177318  0.53521077  0.75057005    -0.13300
C2969       C  0.62396783  0.55493767  0.75399987     0.03400
C2970       C  0.64562622  0.55199848  0.74267250    -0.25400
H2971       H  0.66318544  0.00454595  0.69233430     0.08500
H2972       H  0.68157814  0.54050711  0.71949253     0.12100
H2973       H  0.56766381  0.97824298  0.70433220     0.12000
H2974       H  0.55629490  0.49977407  0.73272567     0.11800
H2975       H  0.57471495  0.53715197  0.75912403     0.12300
H2976       H  0.67051018  0.56691049  0.74537944     0.14300
C2977       C  0.99687155  0.63838342  0.73297993    -0.05800
C2978       C  0.51903862  0.63687194  0.72147052    -0.05700
C2979       C  0.54428134  0.63565149  0.72964348    -0.23900
C2980       C  0.54725626  0.63528618  0.74943046     0.18400
C2981       C  0.52507091  0.63675802  0.76119457     0.15600
C2982       C  0.00018142  0.63880242  0.75285861    -0.18900
C2983       C  0.52785572  0.63545097  0.78102078    -0.20700
C2984       C  0.55250669  0.63264748  0.78907804    -0.13300
C2985       C  0.57479830  0.63169160  0.77736817     0.03400
C2986       C  0.57192722  0.63299487  0.75757239    -0.25400
H2987       H  0.51675841  0.63653665  0.70613982     0.08500
H2988       H  0.56116827  0.63446702  0.72050858     0.12100
H2989       H  0.98279370  0.63950430  0.76178010     0.12000
H2990       H  0.51091648  0.63637012  0.79023154     0.11800
H2991       H  0.55439268  0.63165285  0.80437271     0.12300
H2992       H  0.58871826  0.63169856  0.74838049     0.14300
C2993       C  0.83942947  0.66666035  0.72371130    -0.05800
C2994       C  0.81301997  0.66315610  0.71370824    -0.05700
C2995       C  0.78777451  0.66156298  0.72353120    -0.23900
C2996       C  0.78841714  0.66279106  0.74347025     0.18400
C2997       C  0.81486261  0.66621710  0.75360172     0.15600
C2998       C  0.84023261  0.66848846  0.74367205    -0.18900
C2999       C  0.81529013  0.66666014  0.77352393    -0.20700
C3000       C  0.78948120  0.66342030  0.78341181    -0.13300
C3001       C  0.76309956  0.66013629  0.77350004     0.03400
C3002       C  0.76285907  0.66007043  0.75347660    -0.25400
H3003       H  0.81189262  0.66159260  0.69836176     0.08500
H3004       H  0.76756520  0.65885595  0.71557264     0.12100
H3005       H  0.86027107  0.67065972  0.75160210     0.12000
H3006       H  0.83545852  0.66919316  0.78145126     0.11800
H3007       H  0.79022680  0.66367330  0.79878228     0.12300
H3008       H  0.74251313  0.65728680  0.74562558     0.14300
C3009       C  0.85216482  0.90787814  0.06294838    -0.05800
C3010       C  0.82624478  0.91169398  0.05917541    -0.05700
C3011       C  0.82243626  0.93387476  0.06921340    -0.23900
C3012       C  0.84403250  0.95176648  0.08353008     0.18400
C3013       C  0.86991361  0.94759423  0.08758063     0.15600
C3014       C  0.87406973  0.92598519  0.07703898    -0.18900
C3015       C  0.89106137  0.96494972  0.10217556    -0.20700
C3016       C  0.88732827  0.48718301  0.11221473    -0.13300
C3017       C  0.86237691  0.49242010  0.10781251     0.03400
C3018       C  0.84037877  0.97400553  0.09370117    -0.25400
H3019       H  0.80892268  0.89737506  0.04854120     0.08500
H3020       H  0.80241463  0.93672441  0.06597880     0.12100
H3021       H  0.89362061  0.92232394  0.08027359     0.12000
H3022       H  0.91083477  0.96177052  0.10557327     0.11800
H3023       H  0.90467874  0.50109798  0.12292893     0.12300
H3024       H  0.82100093  0.97772811  0.09008699     0.14300
C3025       C  0.82787646  0.64827985  0.10836824    -0.05800
C3026       C  0.82930650  0.67313601  0.11880373    -0.05700
C3027       C  0.82921953  0.69805886  0.10946292    -0.23900
C3028       C  0.82799939  0.69858276  0.08957275     0.18400
C3029       C  0.82606031  0.67353205  0.07893791     0.15600
C3030       C  0.82574909  0.64845110  0.08840095    -0.18900
C3031       C  0.82514405  0.67431509  0.05902046    -0.20700
C3032       C  0.82666796  0.70008165  0.04968392    -0.13300
C3033       C  0.82898810  0.72528271  0.06017816     0.03400
C3034       C  0.82927651  0.72407922  0.08016416    -0.25400
H3035       H  0.83090693  0.67352712  0.13415607     0.08500
H3036       H  0.83066110  0.71717751  0.11777575     0.12100
H3037       H  0.82474024  0.62949342  0.08011990     0.12000
H3038       H  0.82364778  0.65520036  0.05068105     0.11800
H3039       H  0.82632014  0.70040767  0.03431714     0.12300
H3040       H  0.83093323  0.74323443  0.08854908     0.14300
C3041       C  0.49441535  0.88440322  0.14503181    -0.05800
C3042       C  0.97099497  0.89245812  0.14742960    -0.05700
C3043       C  0.94834816  0.88588817  0.13333865    -0.23900
C3044       C  0.94892141  0.87162932  0.11634808     0.18400
C3045       C  0.97260772  0.86380396  0.11353184     0.15600
C3046       C  0.49493765  0.86975530  0.12804017    -0.18900
C3047       C  0.97368992  0.85058013  0.09615767    -0.20700
C3048       C  0.95178187  0.84552281  0.08172032    -0.13300
C3049       C  0.92790073  0.85276508  0.08459800     0.03400
C3050       C  0.92642849  0.86551695  0.10203638    -0.25400
H3051       H  0.96985985  0.90346893  0.16043027     0.08500
H3052       H  0.93047487  0.89217640  0.13569601     0.12100
H3053       H  0.51297914  0.86359323  0.12598102     0.12000
H3054       H  0.49169752  0.84453980  0.09364237     0.11800
H3055       H  0.95328232  0.83565862  0.06833423     0.12300
H3056       H  0.90833180  0.87157622  0.10423041     0.14300
C3057       C  0.48654101  0.78046521  0.19782510    -0.05800
C3058       C  0.95528197  0.76591852  0.20366916    -0.05700
C3059       C  0.93425373  0.73497932  0.19831411    -0.23900
C3060       C  0.94428259  0.71813753  0.18716279     0.18400
C3061       C  0.97602649  0.73221071  0.18199651     0.15600
C3062       C  0.49685487  0.76314485  0.18736616    -0.18900
C3063       C  0.98627643  0.71548730  0.17102222    -0.20700
C3064       C  0.96504009  0.68543137  0.16455060    -0.13300
C3065       C  0.93312904  0.67149676  0.16893516     0.03400
C3066       C  0.92304772  0.68784828  0.18064072    -0.25400
H3067       H  0.94684946  0.77884484  0.21169768     0.08500
H3068       H  0.91000570  0.72449080  0.20249601     0.12100
H3069       H  0.52106168  0.77405603  0.18298365     0.12000
H3070       H  0.51063344  0.72593137  0.16707715     0.11800
H3071       H  0.97353103  0.67338901  0.15572714     0.12300
H3072       H  0.89856678  0.67737095  0.18431609     0.14300
C3073       C  0.63618979  0.96700952  0.16700850    -0.05800
C3074       C  0.65154824  0.49795681  0.17371980    -0.05700
C3075       C  0.68199769  0.51891877  0.16810267    -0.23900
C3076       C  0.69752681  0.50925075  0.15568744     0.18400
C3077       C  0.68172669  0.97871058  0.14803542     0.15600
C3078       C  0.65111341  0.95781987  0.15369073    -0.18900
C3079       C  0.69724897  0.96925396  0.13542916    -0.20700
C3080       C  0.72866419  0.48942609  0.13114396    -0.13300
C3081       C  0.74497962  0.51923352  0.13949067     0.03400
C3082       C  0.72895506  0.52927020  0.15134525    -0.25400
H3083       H  0.64052025  0.50563244  0.18391556     0.08500
H3084       H  0.69374792  0.54238181  0.17394221     0.12100
H3085       H  0.63933653  0.93411385  0.14820774     0.12000
H3086       H  0.68535240  0.94600158  0.12928929     0.11800
H3087       H  0.74047576  0.98134279  0.12182228     0.12300
H3088       H  0.74114262  0.55249005  0.15755426     0.14300
C3089       C  0.59153033  0.96576009  0.25373883    -0.05800
C3090       C  0.62017004  0.99286560  0.25000227    -0.05700
C3091       C  0.63627883  0.51518033  0.26431877    -0.23900
C3092       C  0.62359546  0.51132913  0.28253594     0.18400
C3093       C  0.59435751  0.48453006  0.28622699     0.15600
C3094       C  0.57887123  0.96171143  0.27197650    -0.18900
C3095       C  0.58086839  0.48112251  0.30406662    -0.20700
C3096       C  0.59614636  0.50376646  0.31818635    -0.13300
C3097       C  0.62565944  0.53021257  0.31504960     0.03400
C3098       C  0.63936732  0.53377037  0.29707396    -0.25400
H3099       H  0.63025612  0.99658831  0.23602031     0.08500
H3100       H  0.65850476  0.53561914  0.26107338     0.12100
H3101       H  0.55648975  0.94119229  0.27489752     0.12000
H3102       H  0.55837734  0.46088520  0.30712456     0.11800
H3103       H  0.58505060  0.50014221  0.33184030     0.12300
H3104       H  0.66198909  0.55406060  0.29434264     0.14300
C3105       C  0.87661415  0.86968226  0.42177449    -0.05800
C3106       C  0.84605160  0.86418903  0.42450205    -0.05700
C3107       C  0.82903641  0.86735085  0.40945823    -0.23900
C3108       C  0.84251806  0.87659899  0.39152616     0.18400
C3109       C  0.87362009  0.88309913  0.38882909     0.15600
C3110       C  0.89028702  0.87922606  0.40388228    -0.18900
C3111       C  0.88754401  0.89333790  0.37110386    -0.20700
C3112       C  0.87081851  0.89704642  0.35615098    -0.13300
C3113       C  0.83968906  0.88990820  0.35854643     0.03400
C3114       C  0.82553343  0.87953356  0.37624965    -0.25400
H3115       H  0.83500363  0.85666234  0.43817280     0.08500
H3116       H  0.80532763  0.86247520  0.41183465     0.12100
H3117       H  0.91395782  0.88379161  0.40170141     0.12000
H3118       H  0.91138267  0.89854716  0.36881507     0.11800
H3119       H  0.88201533  0.90493997  0.34254353     0.12300
H3120       H  0.80159246  0.87430100  0.37818261     0.14300
C3121       C  0.85687508  0.53371284  0.19302779    -0.05800
C3122       C  0.88301253  0.53527970  0.20239341    -0.05700
C3123       C  0.87926537  0.51649975  0.21819498    -0.23900
C3124       C  0.84923008  0.49515876  0.22465961     0.18400
C3125       C  0.82269245  0.49287919  0.21512721     0.15600
C3126       C  0.82668902  0.51255725  0.19960763    -0.18900
C3127       C  0.79263689  0.97062775  0.22111755    -0.20700
C3128       C  0.78890293  0.95072599  0.23630995    -0.13300
C3129       C  0.81510522  0.95326094  0.24614599     0.03400
C3130       C  0.84527347  0.47575886  0.24031146    -0.25400
H3131       H  0.90644921  0.55139442  0.19762076     0.08500
H3132       H  0.89987450  0.51844369  0.22524038     0.12100
H3133       H  0.80632323  0.51085303  0.19234474     0.12000
H3134       H  0.77200674  0.96837924  0.21392494     0.11800
H3135       H  0.76546655  0.93358788  0.24057018     0.12300
H3136       H  0.86563900  0.47759459  0.24765008     0.14300
C3137       C  0.96082463  0.89368811  0.22969095    -0.05800
C3138       C  0.93693826  0.89195391  0.21787089    -0.05700
C3139       C  0.90980833  0.88891776  0.22584677    -0.23900
C3140       C  0.90694692  0.88850291  0.24565507     0.18400
C3141       C  0.93140524  0.89095040  0.25757094     0.15600
C3142       C  0.95797045  0.89304116  0.24946964    -0.18900
C3143       C  0.92915863  0.89188792  0.27735096    -0.20700
C3144       C  0.90304502  0.89115108  0.28529113    -0.13300
C3145       C  0.87865997  0.88851801  0.27351035     0.03400
C3146       C  0.88044290  0.88661104  0.25375288    -0.25400
H3147       H  0.93905250  0.89231836  0.20257807     0.08500
H3148       H  0.89126843  0.88725356  0.21658067     0.12100
H3149       H  0.97680348  0.89479131  0.25853408     0.12000
H3150       H  0.94786188  0.89391034  0.28660980     0.11800
H3151       H  0.90189572  0.89273964  0.30056005     0.12300
H3152       H  0.86181647  0.88516014  0.24462705     0.14300
C3153       C  0.69315568  0.86240708  0.27737847    -0.05800
C3154       C  0.67300204  0.86980829  0.28704595    -0.05700
C3155       C  0.64910242  0.87141073  0.27719978    -0.23900
C3156       C  0.64539567  0.86603687  0.25755664     0.18400
C3157       C  0.66545317  0.85848002  0.24769333     0.15600
C3158       C  0.68900504  0.85643041  0.25770234    -0.18900
C3159       C  0.66198073  0.85370516  0.22795367    -0.20700
C3160       C  0.63870407  0.85649276  0.21803118    -0.13300
C3161       C  0.61855276  0.86373082  0.22783227     0.03400
C3162       C  0.62213902  0.86849938  0.24759895    -0.25400
H3163       H  0.67590819  0.87465242  0.30214486     0.08500
H3164       H  0.63381732  0.87729587  0.28488281     0.12100
H3165       H  0.70469346  0.85110536  0.25000297     0.12000
H3166       H  0.67733043  0.84798265  0.22021291     0.11800
H3167       H  0.63622777  0.85267211  0.20282861     0.12300
H3168       H  0.60699398  0.87455618  0.25532085     0.14300
C3169       C  0.74251200  0.77901230  0.30949956    -0.05800
C3170       C  0.75869484  0.76393003  0.30350500    -0.05700
C3171       C  0.74913979  0.73338073  0.30927809    -0.23900
C3172       C  0.72309296  0.71735127  0.32100974     0.18400
C3173       C  0.70593549  0.73185117  0.32654757     0.15600
C3174       C  0.71577250  0.76256102  0.32079187    -0.18900
C3175       C  0.67960939  0.71560611  0.33805863    -0.20700
C3176       C  0.67082292  0.68549910  0.34444799    -0.13300
C3177       C  0.68837881  0.67130159  0.33955078     0.03400
C3178       C  0.71427995  0.68728857  0.32757957    -0.25400
H3179       H  0.77929325  0.77607223  0.29481871     0.08500
H3180       H  0.76242878  0.72247657  0.30482387     0.12100
H3181       H  0.70282554  0.77379432  0.32533944     0.12000
H3182       H  0.66610727  0.72636492  0.34235481     0.11800
H3183       H  0.65084088  0.67368270  0.35364577     0.12300
H3184       H  0.72784166  0.67645903  0.32351279     0.14300
C3185       C  0.72523553  0.51931589  0.36312650    -0.05800
C3186       C  0.71544458  0.49106009  0.37274478    -0.05700
C3187       C  0.72732665  0.47161369  0.36781511    -0.23900
C3188       C  0.74927499  0.48026393  0.35327671     0.18400
C3189       C  0.75999545  0.50907427  0.34392091     0.15600
C3190       C  0.74792149  0.52837689  0.34890416    -0.18900
C3191       C  0.78205901  0.51775721  0.32944265    -0.20700
C3192       C  0.79246649  0.99742086  0.32373035    -0.13300
C3193       C  0.78097018  0.96816605  0.33244757     0.03400
C3194       C  0.75998205  0.96015948  0.34758263    -0.25400
H3195       H  0.69809112  0.48368059  0.38376015     0.08500
H3196       H  0.71897052  0.44958560  0.37514841     0.12100
H3197       H  0.75600703  0.55036897  0.34155475     0.12000
H3198       H  0.79065033  0.53991085  0.32222339     0.11800
H3199       H  0.80866265  0.00414401  0.31208798     0.12300
H3200       H  0.75113685  0.93779545  0.35459989     0.14300
C3201       C  0.86649521  0.57307117  0.75409458    -0.05800
C3202       C  0.84641876  0.57814173  0.76571391    -0.05700
C3203       C  0.83048481  0.55769053  0.78062725    -0.23900
C3204       C  0.83483281  0.53215739  0.78449770     0.18400
C3205       C  0.85512074  0.52700149  0.77294932     0.15600
C3206       C  0.87033197  0.54711188  0.75770813    -0.18900
C3207       C  0.86056451  0.50231022  0.77715815    -0.20700
C3208       C  0.84672483  0.98334786  0.79290680    -0.13300
C3209       C  0.82642734  0.98806829  0.80443070     0.03400
C3210       C  0.82007669  0.01220952  0.79998670    -0.25400
H3211       H  0.84300991  0.59792852  0.76324035     0.08500
H3212       H  0.81518225  0.56218399  0.78935292     0.12100
H3213       H  0.88604726  0.54312258  0.74903554     0.12000
H3214       H  0.87615383  0.49810569  0.76851742     0.11800
H3215       H  0.85193582  0.96493629  0.79617646     0.12300
H3216       H  0.80478485  0.01624484  0.80903554     0.14300
C3217       C  0.68117203  0.55723721  0.83480790    -0.05800
C3218       C  0.66746314  0.52785907  0.82590710    -0.05700
C3219       C  0.67762580  0.00677145  0.83044802    -0.23900
C3220       C  0.70148970  0.51467102  0.84405393     0.18400
C3221       C  0.71453226  0.54360985  0.85367657     0.15600
C3222       C  0.70430184  0.56472071  0.84897990    -0.18900
C3223       C  0.73817201  0.55125384  0.86744447    -0.20700
C3224       C  0.74948361  0.53077337  0.87122382    -0.13300
C3225       C  0.73744702  0.00249192  0.86118781     0.03400
C3226       C  0.71303316  0.99439996  0.84784637    -0.25400
H3227       H  0.64975407  0.52166635  0.81488673     0.08500
H3228       H  0.66732177  0.98458314  0.82301271     0.12100
H3229       H  0.71487012  0.58726324  0.85603326     0.12000
H3230       H  0.74829354  0.57329430  0.87502982     0.11800
H3231       H  0.76821936  0.53744041  0.88159184     0.12300
H3232       H  0.70322751  0.97242985  0.84018282     0.14300
C3233       C  0.71523687  0.74233070  0.80187139    -0.05800
C3234       C  0.69727974  0.75591957  0.79614368    -0.05700
C3235       C  0.70738621  0.78717459  0.80055486    -0.23900
C3236       C  0.73557623  0.80513186  0.81068568     0.18400
C3237       C  0.75456713  0.79203953  0.81544421     0.15600
C3238       C  0.74434723  0.76087334  0.81094271    -0.18900
C3239       C  0.78289538  0.80988622  0.82535275    -0.20700
C3240       C  0.79166151  0.84003243  0.83139924    -0.13300
C3241       C  0.77215806  0.85270119  0.82769564     0.03400
C3242       C  0.74453121  0.83545557  0.81683198    -0.25400
H3243       H  0.67485807  0.74205136  0.78902598     0.08500
H3244       H  0.69269786  0.79696632  0.79661725     0.12100
H3245       H  0.75865995  0.75072918  0.81509323     0.12000
H3246       H  0.79777948  0.80017110  0.82895705     0.11800
H3247       H  0.81306659  0.85292655  0.83967683     0.12300
H3248       H  0.72955270  0.84524512  0.81366839     0.14300
C3249       C  0.82652360  0.90364443  0.91347073    -0.05800
C3250       C  0.82572805  0.87517797  0.91007036    -0.05700
C3251       C  0.83027399  0.85889960  0.92499456    -0.23900
C3252       C  0.83617818  0.87103992  0.94353817     0.18400
C3253       C  0.83722633  0.89975636  0.94700025     0.15600
C3254       C  0.83209483  0.91560932  0.93206344    -0.18900
C3255       C  0.84374034  0.91243628  0.96533401    -0.20700
C3256       C  0.84965897  0.89713423  0.98010774    -0.13300
C3257       C  0.84872032  0.86854894  0.97697832     0.03400
C3258       C  0.84150276  0.85533102  0.95863324    -0.25400
H3259       H  0.82122449  0.86531467  0.89590054     0.08500
H3260       H  0.82939314  0.83694946  0.92200730     0.12100
H3261       H  0.83293386  0.93759987  0.93490036     0.12000
H3262       H  0.84459583  0.93440711  0.96822516     0.11800
H3263       H  0.85481950  0.90766336  0.99411129     0.12300
H3264       H  0.84082580  0.83336414  0.95602635     0.14300
C3265       C  0.50368308  0.66809969  0.02716988    -0.05800
C3266       C  0.51679588  0.68477465  0.04415452    -0.05700
C3267       C  0.50055879  0.67483910  0.06130193    -0.23900
C3268       C  0.97047858  0.64842604  0.06176429     0.18400
C3269       C  0.95690210  0.63191103  0.04466752     0.15600
C3270       C  0.97369847  0.64148451  0.02763497    -0.18900
C3271       C  0.92654288  0.60620951  0.04479419    -0.20700
C3272       C  0.90968003  0.59694463  0.06158999    -0.13300
C3273       C  0.92283392  0.61267943  0.07883973     0.03400
C3274       C  0.95357012  0.63837988  0.07887687    -0.25400
H3275       H  0.53986494  0.70534329  0.04421305     0.08500
H3276       H  0.51142699  0.68799757  0.07416266     0.12100
H3277       H  0.96310718  0.62862856  0.01462613     0.12000
H3278       H  0.91569897  0.59331752  0.03184560     0.11800
H3279       H  0.88625859  0.57688748  0.06111999     0.12300
H3280       H  0.96398104  0.65080823  0.09202364     0.14300
C3281       C  0.57029843  0.66021654  0.91401295    -0.05800
C3282       C  0.55088766  0.64702858  0.89794582    -0.05700
C3283       C  0.56196145  0.63959628  0.88181701    -0.23900
C3284       C  0.59295260  0.64581686  0.88124085     0.18400
C3285       C  0.61303971  0.65958275  0.89715393     0.15600
C3286       C  0.60141459  0.66622717  0.91363351    -0.18900
C3287       C  0.64441909  0.66679280  0.89611406    -0.20700
C3288       C  0.65565315  0.66035217  0.87952768    -0.13300
C3289       C  0.63554367  0.64593980  0.86386172     0.03400
C3290       C  0.60416976  0.63871490  0.86489314    -0.25400
H3291       H  0.52688057  0.64221219  0.89792836     0.08500
H3292       H  0.54632974  0.62924210  0.86970489     0.12100
H3293       H  0.61669047  0.67684572  0.92586597     0.12000
H3294       H  0.66030073  0.67756548  0.90806802     0.11800
H3295       H  0.67993448  0.66615248  0.87905060     0.12300
H3296       H  0.58856984  0.62804955  0.85278756     0.14300
C3297       C  0.88382568  0.52868906  0.89179383    -0.05800
C3298       C  0.91195554  0.02805543  0.89376546    -0.05700
C3299       C  0.93548080  0.54855149  0.90627761    -0.23900
C3300       C  0.93122691  0.56995926  0.91703888     0.18400
C3301       C  0.90337860  0.57133207  0.91478625     0.15600
C3302       C  0.88003538  0.55089334  0.90213670    -0.18900
C3303       C  0.89923652  0.59302863  0.92529634    -0.20700
C3304       C  0.92294438  0.61390848  0.93751209    -0.13300
C3305       C  0.95082545  0.61292343  0.93971870     0.03400
C3306       C  0.95457984  0.59045380  0.92972447    -0.25400
H3307       H  0.91531840  0.01092612  0.88618799     0.08500
H3308       H  0.95678407  0.54732665  0.90775784     0.12100
H3309       H  0.85843279  0.55162413  0.90086180     0.12000
H3310       H  0.87799602  0.59435270  0.92372312     0.11800
H3311       H  0.91988120  0.63141756  0.94486695     0.12300
H3312       H  0.97641415  0.59015252  0.93096240     0.14300
C3313       C  0.70335738  0.87476471  0.89783799    -0.05800
C3314       C  0.71356849  0.86800961  0.91508821    -0.05700
C3315       C  0.69232021  0.84627046  0.92769620    -0.23900
C3316       C  0.66030912  0.83083845  0.92337316     0.18400
C3317       C  0.64974668  0.83696310  0.90589675     0.15600
C3318       C  0.67138002  0.85874607  0.89312734    -0.18900
C3319       C  0.61769293  0.82129385  0.90156534    -0.20700
C3320       C  0.59647190  0.79938372  0.91417677    -0.13300
C3321       C  0.60678493  0.79292830  0.93146716     0.03400
C3322       C  0.63875256  0.80911279  0.93614282    -0.25400
H3323       H  0.73822979  0.87985161  0.91893615     0.08500
H3324       H  0.70092794  0.84173754  0.94088722     0.12100
H3325       H  0.66333342  0.86389989  0.87991809     0.12000
H3326       H  0.60906049  0.82566759  0.88833562     0.11800
H3327       H  0.57183006  0.78711369  0.91029861     0.12300
H3328       H  0.64690465  0.80394454  0.94931158     0.14300
C3329       C  0.93224519  0.81159862  0.00000755    -0.05800
C3330       C  0.96170442  0.82504013  0.00905115    -0.05700
C3331       C  0.98307068  0.81548005  0.00421557    -0.23900
C3332       C  0.97527584  0.79263543  0.99014374     0.18400
C3333       C  0.94631826  0.78039689  0.98026464     0.15600
C3334       C  0.92496534  0.78987141  0.98532203    -0.18900
C3335       C  0.93869625  0.75804256  0.96595641    -0.20700
C3336       C  0.95905492  0.74693799  0.96193482    -0.13300
C3337       C  0.48720865  0.75781783  0.97227896     0.03400
C3338       C  0.49547727  0.78114904  0.98614613    -0.25400
H3339       H  0.96751956  0.84169577  0.02050942     0.08500
H3340       H  0.50525910  0.82526349  0.01183363     0.12100
H3341       H  0.90226041  0.77964930  0.97824500     0.12000
H3342       H  0.91670161  0.74866502  0.95815497     0.11800
H3343       H  0.95230508  0.72911975  0.95110482     0.12300
H3344       H  0.51740011  0.79006096  0.99399331     0.14300
C3345       C  0.74293572  0.76638268  0.02751763    -0.05800
C3346       C  0.72520363  0.77505325  0.03878239    -0.05700
C3347       C  0.69345468  0.76352136  0.03466511    -0.23900
C3348       C  0.67900077  0.74291765  0.01936086     0.18400
C3349       C  0.69619929  0.73246654  0.00876575     0.15600
C3350       C  0.72803638  0.74436864  0.01286063    -0.18900
C3351       C  0.68156619  0.71119114  0.99378348    -0.20700
C3352       C  0.65062107  0.70174330  0.98862300    -0.13300
C3353       C  0.63421146  0.71380296  0.99821983     0.03400
C3354       C  0.64810225  0.73364462  0.01392176    -0.25400
H3355       H  0.73615756  0.79166039  0.05029506     0.08500
H3356       H  0.68044837  0.77138148  0.04309799     0.12100
H3357       H  0.74138263  0.73695270  0.00437559     0.12000
H3358       H  0.69436195  0.70271151  0.98566772     0.11800
H3359       H  0.64008906  0.68642921  0.97648107     0.12300
H3360       H  0.63519149  0.74266375  0.02144196     0.14300
loop_ 
_geom_bond_atom_site_label_1 
_geom_bond_atom_site_label_2 
_geom_bond_distance 
_geom_bond_site_symmetry_2 
_ccdc_geom_bond_type 
Fe1          O17   2.050       .  S
Fe1           O7   2.102   1_556  S
Fe1          O14   2.102       .  S
Fe1           O6   2.039       .  S
Fe1          O12   1.959       .  S
Fe2           O5   2.036   1_455  S
Fe2           O9   2.055       .  S
Fe2          O13   2.031       .  S
Fe2          O18   2.086       .  S
Fe2          O12   1.953       .  S
Fe3          O21   2.085   1_455  S
Fe3           O8   2.075       .  S
Fe3          O15   2.082       .  S
Fe3           O4   2.070       .  S
Fe3          O12   1.962       .  S
O4           C11   1.265       .  A
O5         C1699   1.258       .  A
O6           C11   1.261       .  A
O7           C10   1.282       .  A
O8           C20   1.274       .  A
O9           C22   1.265       .  A
C10          O15   1.280   1_554  A
C10         C745   1.491       .  S
C11         C833   1.464       .  S
O13          C16   1.266       .  A
O14          C16   1.279       .  A
C16         C801   1.474       .  S
O17          C22   1.264       .  A
O18          C20   1.276       .  A
C19        O1685   1.258       .  A
C19        O1701   1.268       .  A
C19         C785   1.469       .  S
C20         C761   1.480       .  S
O21        C1699   1.268       .  A
C22         C817   1.473   1_455  S
Fe23         O39   2.034       .  S
Fe23         O29   2.104       .  S
Fe23         O36   2.106       .  S
Fe23         O28   2.039       .  S
Fe23         O34   1.962       .  S
Fe24         O27   2.031       .  S
Fe24         O31   2.071       .  S
Fe24         O35   2.025       .  S
Fe24         O40   2.087       .  S
Fe24         O34   1.956       .  S
Fe25         O43   2.089       .  S
Fe25         O30   2.063       .  S
Fe25         O37   2.067       .  S
Fe25         O26   2.062       .  S
Fe25         O34   1.965       .  S
O26          C33   1.264       .  A
O27          C41   1.260       .  A
O28          C33   1.259       .  A
O29          C32   1.283       .  A
O30          C42   1.271       .  A
O31          C44   1.266       .  A
C32          O37   1.278       .  A
C32         C689   1.478       .  S
C33         C721   1.473       .  S
O35          C38   1.266       .  A
O36          C38   1.280       .  A
C38         C793   1.475       .  S
O39          C44   1.260       .  A
O40          C42   1.275       .  A
C41          O43   1.270       .  A
C41        C1617   1.477       .  S
C42         C729   1.483       .  S
C44         C705   1.476       .  S
Fe45         O61   2.066       .  S
Fe45         O51   2.059       .  S
Fe45         O58   2.059       .  S
Fe45         O50   2.049       .  S
Fe45         O56   1.952       .  S
Fe46         O49   2.044       .  S
Fe46         O53   2.070       .  S
Fe46         O57   2.049       .  S
Fe46         O62   2.073       .  S
Fe46         O56   1.948       .  S
Fe47         O65   2.052       .  S
Fe47         O52   2.088       .  S
Fe47         O59   2.076       .  S
Fe47         O48   2.066       .  S
Fe47         O56   1.950       .  S
O48          C55   1.268       .  A
O49          C63   1.265       .  A
O50          C55   1.264       .  A
O51          C54   1.273       .  A
O52          C64   1.275       .  A
O53          C66   1.271       .  A
C54          O59   1.275       .  A
C54         C593   1.470       .  S
C55         C673   1.477       .  S
O57          C60   1.266       .  A
O58          C60   1.270       .  A
C60         C633   1.468       .  S
O61          C66   1.268       .  A
O62          C64   1.273       .  A
C63          O65   1.265       .  A
C63         C625   1.458       .  S
C64         C609   1.483       .  S
C66         C649   1.479       .  S
Fe67         O83   2.047       .  S
Fe67         O73   2.080       .  S
Fe67         O80   2.075       .  S
Fe67         O72   2.047       .  S
Fe67         O78   1.984       .  S
Fe68         O71   2.017   1_455  S
Fe68         O75   2.082       .  S
Fe68         O79   2.024       .  S
Fe68         O84   2.090       .  S
Fe68         O78   1.973       .  S
Fe69         O87   2.064       .  S
Fe69         O74   2.080       .  S
Fe69         O81   2.067       .  S
Fe69         O70   2.059       .  S
Fe69         O78   1.972       .  S
O70          C77   1.265       .  A
O71        C1765   1.259       .  A
O72          C77   1.263       .  A
O73          C76   1.274       .  A
O74          C86   1.273       .  A
O75          C88   1.270       .  A
C76          O81   1.273       .  A
C76         C521   1.483   1_455  S
C77         C553   1.476       .  S
O79          C82   1.264       .  A
O80          C82   1.272       .  A
C82         C641   1.468       .  S
O83          C88   1.264       .  A
O84          C86   1.275       .  A
C85        O1751   1.259       .  A
C85        O1767   1.266       .  A
C85         C617   1.452       .  S
C86         C569   1.488       .  S
O87        C1765   1.266   1_455  A
C88         C537   1.479   1_455  S
Fe89        O105   2.046       .  S
Fe89         O95   2.070       .  S
Fe89        O102   2.066       .  S
Fe89         O94   2.052       .  S
Fe89        O100   1.977       .  S
Fe90         O93   2.041       .  S
Fe90         O97   2.061       .  S
Fe90        O101   2.050       .  S
Fe90        O106   2.059       .  S
Fe90        O100   1.969       .  S
Fe91        O109   2.070       .  S
Fe91         O96   2.098       .  S
Fe91        O103   2.096       .  S
Fe91         O92   2.068       .  S
Fe91        O100   1.975       .  S
O92          C99   1.267       .  A
O93         C107   1.266       .  A
O94          C99   1.262       .  A
O95          C98   1.274       .  A
O96         C108   1.275       .  A
O97         C110   1.264       .  A
C98         O103   1.279       .  A
C98         C601   1.485       .  S
C99         C545   1.484       .  S
O101        C104   1.270       .  A
O102        C104   1.274       .  A
C104        C505   1.474       .  S
O105        C110   1.262       .  A
O106        C108   1.270       .  A
C107        O109   1.271       .  A
C107        C497   1.478   1_545  S
C108        C753   1.490       .  S
C110        C561   1.475       .  S
Fe111       O127   2.040       .  S
Fe111       O117   2.100   1_554  S
Fe111       O124   2.094       .  S
Fe111       O116   2.036       .  S
Fe111       O122   1.960       .  S
Fe112       O115   2.037       .  S
Fe112       O119   2.074       .  S
Fe112       O123   2.023       .  S
Fe112       O128   2.102       .  S
Fe112       O122   1.952       .  S
Fe113       O131   2.085       .  S
Fe113       O118   2.051       .  S
Fe113       O125   2.056       .  S
Fe113       O114   2.066       .  S
Fe113       O122   1.958       .  S
O114        C121   1.265       .  A
O115        C129   1.260       .  A
O116        C121   1.261       .  A
O117        C120   1.280       .  A
O118        C130   1.267       .  A
O119        C132   1.268       .  A
C120        O125   1.275   1_556  A
C120        C737   1.483       .  S
C121        C809   1.465       .  S
O123        C126   1.266       .  A
O124        C126   1.278       .  A
C126        C513   1.476       .  S
O127        C132   1.264       .  A
O128        C130   1.276       .  A
C129        O131   1.270       .  A
C129        C489   1.461       .  S
C130        C529   1.477       .  S
C132        C825   1.475       .  S
Fe133       O149   2.063       .  S
Fe133       O139   2.072       .  S
Fe133       O146   2.073       .  S
Fe133       O138   2.057       .  S
Fe133       O144   1.961       .  S
Fe134       O137   2.036       .  S
Fe134       O141   2.064       .  S
Fe134       O145   2.040       .  S
Fe134       O150   2.064       .  S
Fe134       O144   1.954       .  S
Fe135       O153   2.067       .  S
Fe135       O140   2.088       .  S
Fe135       O147   2.075       .  S
Fe135       O136   2.065       .  S
Fe135       O144   1.960       .  S
O136        C143   1.270       .  A
O137        C151   1.263       .  A
O138        C143   1.268       .  A
O139        C142   1.271       .  A
O140        C152   1.275       .  A
O141        C154   1.271       .  A
C142        O147   1.272       .  A
C142        C769   1.483       .  S
C143        C697   1.475       .  S
O145        C148   1.262       .  A
O146        C148   1.269       .  A
C148        C481   1.475       .  S
O149        C154   1.272       .  A
O150        C152   1.271       .  A
C151        O153   1.267       .  A
C151        C465   1.468       .  S
C152        C449   1.478       .  S
C154        C713   1.473       .  S
Fe155       O171   2.060       .  S
Fe155       O161   2.080       .  S
Fe155       O168   2.074       .  S
Fe155       O160   2.051       .  S
Fe155       O166   1.952       .  S
Fe156       O159   2.056       .  S
Fe156       O163   2.059       .  S
Fe156       O167   2.055       .  S
Fe156       O172   2.067       .  S
Fe156       O166   1.949       .  S
Fe157       O175   2.047       .  S
Fe157       O162   2.095       .  S
Fe157       O169   2.087       .  S
Fe157       O158   2.054       .  S
Fe157       O166   1.938       .  S
O158        C165   1.266       .  A
O159        C173   1.264       .  A
O160        C165   1.265       .  A
O161        C164   1.276       .  A
O162        C174   1.279       .  A
O163        C176   1.270       .  A
C164        O169   1.277       .  A
C164        C401   1.489       .  S
C165        C433   1.472       .  S
O167        C170   1.266       .  A
O168        C170   1.271       .  A
C170        C473   1.475       .  S
O171        C176   1.270       .  A
O172        C174   1.274       .  A
C173        O175   1.264       .  A
C173        C457   1.463       .  S
C174        C681   1.486       .  S
C176        C409   1.465       .  S
Fe177       O193   2.040       .  S
Fe177       O183   2.098       .  S
Fe177       O190   2.093       .  S
Fe177       O182   2.034       .  S
Fe177       O188   1.954       .  S
Fe178       O181   2.031       .  S
Fe178       O185   2.076       .  S
Fe178       O189   2.030       .  S
Fe178       O194   2.092       .  S
Fe178       O188   1.948       .  S
Fe179       O197   2.093       .  S
Fe179       O184   2.046       .  S
Fe179       O191   2.047       .  S
Fe179       O180   2.069       .  S
Fe179       O188   1.958       .  S
O180        C187   1.266       .  A
O181        C195   1.260       .  A
O182        C187   1.260       .  A
O183        C186   1.281       .  A
O184        C196   1.268       .  A
O185        C198   1.269       .  A
C186        O191   1.275       .  A
C186        C313   1.481       .  S
C187        C377   1.466       .  S
O189        C192   1.266       .  A
O190        C192   1.278       .  A
C192        C353   1.473       .  S
O193        C198   1.263       .  A
O194        C196   1.276       .  A
C195        O197   1.271       .  A
C195        C337   1.477       .  S
C196        C585   1.475       .  S
C198        C361   1.473       .  S
Fe199       O215   2.033       .  S
Fe199       O205   2.111       .  S
Fe199       O212   2.100       .  S
Fe199       O204   2.032       .  S
Fe199       O210   1.963       .  S
Fe200       O203   2.033       .  S
Fe200       O207   2.073       .  S
Fe200       O211   2.029       .  S
Fe200       O216   2.102       .  S
Fe200       O210   1.957       .  S
Fe201       O219   2.088       .  S
Fe201       O206   2.072       .  S
Fe201       O213   2.077       .  S
Fe201       O202   2.081       .  S
Fe201       O210   1.964       .  S
O202        C209   1.267       .  A
O203        C217   1.259       .  A
O204        C209   1.258       .  A
O205        C208   1.283       .  A
O206        C218   1.273       .  A
O207        C220   1.266       .  A
C208        O213   1.280       .  A
C208        C577   1.496       .  S
C209        C657   1.480       .  S
O211        C214   1.268       .  A
O212        C214   1.281       .  A
C214        C345   1.473       .  S
O215        C220   1.259       .  A
O216        C218   1.278       .  A
C217        O219   1.269       .  A
C217        C329   1.464   1_545  S
C218        C305   1.489       .  S
C220        C665   1.476       .  S
Fe221       O237   2.029       .  S
Fe221       O227   2.086       .  S
Fe221       O234   2.083       .  S
Fe221       O226   2.033       .  S
Fe221       O232   1.950       .  S
Fe222       O225   2.035       .  S
Fe222       O229   2.064       .  S
Fe222       O233   2.041       .  S
Fe222       O238   2.072       .  S
Fe222       O232   1.951       .  S
Fe223       O241   2.076       .  S
Fe223       O228   2.068       .  S
Fe223       O235   2.067       .  S
Fe223       O224   2.059       .  S
Fe223       O232   1.965       .  S
O224        C231   1.264       .  A
O225        C239   1.261       .  A
O226        C231   1.260       .  A
O227        C230   1.278       .  A
O228        C240   1.273       .  A
O229        C242   1.266       .  A
C230        O235   1.277       .  A
C230        C441   1.475       .  S
C231        C417   1.465       .  S
O233        C236   1.268       .  A
O234        C236   1.276       .  A
C236        C281   1.478       .  S
O237        C242   1.261       .  A
O238        C240   1.274       .  A
C239        O241   1.268       .  A
C239       C1105   1.471       .  S
C240        C321   1.472       .  S
C242        C425   1.469       .  S
Fe243       O259   2.029       .  S
Fe243       O249   2.103       .  S
Fe243       O256   2.094       .  S
Fe243       O248   2.032       .  S
Fe243       O254   1.954       .  S
Fe244       O247   2.031       .  S
Fe244       O251   2.072       .  S
Fe244       O255   2.029       .  S
Fe244       O260   2.106       .  S
Fe244       O254   1.952       .  S
Fe245       O263   2.087       .  S
Fe245       O250   2.066       .  S
Fe245       O257   2.078       .  S
Fe245       O246   2.078       .  S
Fe245       O254   1.959       .  S
O246        C253   1.267       .  A
O247        C261   1.257       .  A
O248        C253   1.259       .  A
O249        C252   1.282       .  A
O250        C262   1.274       .  A
O251        C264   1.267       .  A
C252        O257   1.279       .  A
C252        C297   1.495       .  S
C253        C369   1.471       .  S
O255        C258   1.266       .  A
O256        C258   1.278       .  A
C258        C289   1.478       .  S
O259        C264   1.261       .  A
O260        C262   1.279       .  A
C261        O263   1.268       .  A
C261        C273   1.458       .  S
C262        C393   1.487       .  S
C264        C385   1.466       .  S
C265       C1079   1.471       .  S
C265        C266   1.405       .  A
C265        C270   1.406       .  A
C266        C267   1.396       .  A
C266       H1115   1.083       .  S
C267        C268   1.401       .  A
C267        H276   1.084       .  S
C268        C274   1.399       .  A
C268        C269   1.414       .  A
C269        C271   1.402       .  A
C269        C270   1.397       .  A
C270        H277   1.085       .  S
C271        C272   1.395       .  A
C271        H278   1.084       .  S
C272        C273   1.402       .  A
C272        H279   1.083       .  S
C273        C274   1.401       .  A
C274        H280   1.085       .  S
H275       C1106   1.083       .  S
C281        C282   1.409       .  A
C281        C286   1.402       .  A
C282        C283   1.395       .  A
C282        H291   1.083       .  S
C283        C284   1.399       .  A
C283        H292   1.084       .  S
C284        C290   1.404       .  A
C284        C285   1.415       .  A
C285        C287   1.396       .  A
C285        C286   1.400       .  A
C286        H293   1.084       .  S
C287        C288   1.391       .  A
C287        H294   1.084       .  S
C288        C289   1.410       .  A
C288        H295   1.083       .  S
C289        C290   1.403       .  A
C290        H296   1.084       .  S
C297        C298   1.408       .  A
C297        C302   1.410       .  A
C298        C299   1.403       .  A
C298        H307   1.083       .  S
C299        C300   1.404       .  A
C299        H308   1.084       .  S
C300        C306   1.413       .  A
C300        C301   1.414       .  A
C301        C303   1.402       .  A
C301        C302   1.410       .  A
C302        H309   1.084       .  S
C303        C304   1.399       .  A
C303        H310   1.084       .  S
C304        C305   1.407       .  A
C304        H311   1.083       .  S
C305        C306   1.410       .  A
C306        H312   1.084       .  S
C313        C314   1.407       .  A
C313        C318   1.404       .  A
C314        C315   1.402       .  A
C314        H323   1.083       .  S
C315        C316   1.405       .  A
C315        H324   1.083       .  S
C316        C322   1.408       .  A
C316        C317   1.414       .  A
C317        C319   1.397       .  A
C317        C318   1.396       .  A
C318        H325   1.084       .  S
C319       C2000   1.389       .  A
C319        H326   1.084       .  S
C320        C321   1.405       .  A
C320       C1999   1.389       .  A
C320        H327   1.084       .  S
C321       C2002   1.407       .  A
C322       C2001   1.407       .  A
C322        H328   1.084       .  S
C329        C330   1.402       .  A
C329       C1174   1.405       .  A
C330        C331   1.393       .  A
C330        H339   1.083       .  S
C331       C1172   1.401       .  A
C331        H340   1.084       .  S
C332        C338   1.396       .  A
C332        C333   1.412       .  A
C332       C1171   1.401       .  A
C333        C334   1.402       .  A
C333       C2015   1.404       .  A
C334       C1169   1.405       .  A
C334        H341   1.085       .  S
C335        C336   1.400       .  A
C335       C2013   1.404       .  A
C335        H342   1.084       .  S
C336        C337   1.405       .  A
C336        H343   1.083       .  S
C337       C2018   1.407       .  A
C338       C2017   1.407       .  A
C338        H344   1.084       .  S
C345        C346   1.408       .  A
C345        C350   1.401       .  A
C346        C347   1.392       .  A
C346        H355   1.083       .  S
C347        C348   1.397       .  A
C347        H356   1.084       .  S
C348        C354   1.402       .  A
C348        C349   1.417       .  A
C349        C351   1.398       .  A
C349        C350   1.404       .  A
C350        H357   1.084       .  S
C351        C352   1.394       .  A
C351        H358   1.084       .  S
C352        C353   1.409       .  A
C352        H359   1.083       .  S
C353        C354   1.400       .  A
C354        H360   1.084       .  S
C361        C362   1.403       .  A
C361        C366   1.406       .  A
C362       C2043   1.398       .  A
C362        H371   1.083       .  S
C363       C2042   1.398       .  A
C363       C2044   1.404       .  A
C363        H372   1.084       .  S
C364        C365   1.413       .  A
C364       C2043   1.404       .  A
C364       C2050   1.400       .  A
C365        C367   1.403       .  A
C365        C366   1.400       .  A
C366        H373   1.085       .  S
C367        C368   1.397       .  A
C367        H374   1.084       .  S
C368       C2049   1.403       .  A
C368        H375   1.083       .  S
C369        C370   1.406       .  A
C369       C2048   1.403   1_455  A
C370       C2044   1.400       .  A
C370        H376   1.085       .  S
C377        C378   1.402       .  A
C377        C382   1.404       .  A
C378        C379   1.396       .  A
C378        H387   1.083       .  S
C379        C380   1.403       .  A
C379        H388   1.084       .  S
C380        C386   1.397       .  A
C380        C381   1.413       .  A
C381        C383   1.403       .  A
C381        C382   1.397       .  A
C382        H389   1.085       .  S
C383        C384   1.396       .  A
C383        H390   1.084       .  S
C384        C385   1.402       .  A
C384        H391   1.083       .  S
C385        C386   1.405       .  A
C386        H392   1.085       .  S
C393        C398   1.407       .  A
C393       C2074   1.407       .  A
C394        C395   1.402       .  A
C394       C2073   1.407       .  A
C394        H403   1.083       .  S
C395        C396   1.404       .  A
C395        H404   1.084       .  S
C396        C402   1.413       .  A
C396        C397   1.415       .  A
C397        C399   1.402       .  A
C397       C2078   1.410       .  A
C398       C2077   1.410       .  A
C398        H405   1.084       .  S
C399        C400   1.399       .  A
C399       H2086   1.084       .  S
C400        C401   1.407       .  A
C400        H407   1.083       .  S
C401        C402   1.409       .  A
C402        H408   1.084       .  S
H406       C2079   1.084       .  S
C409        C410   1.402       .  A
C409        C414   1.404       .  A
C410       C2091   1.396       .  A
C410        H419   1.083       .  S
C411       C2090   1.396       .  A
C411       C2092   1.403       .  A
C411        H420   1.084       .  S
C412        C413   1.413       .  A
C412       C2091   1.403       .  A
C412       C2098   1.396       .  A
C413        C415   1.401       .  A
C413        C414   1.394       .  A
C414        H421   1.085       .  S
C415        C416   1.393       .  A
C415        H422   1.084       .  S
C416       C2097   1.403       .  A
C416        H423   1.083       .  S
C417        C418   1.404       .  A
C417       C2096   1.403   1_455  A
C418       C2092   1.396       .  A
C418        H424   1.085       .  S
C425        C426   1.403       .  A
C425       C1270   1.405       .  A
C426        C427   1.396       .  A
C426        H435   1.083       .  S
C427       C1268   1.403       .  A
C427        H436   1.084       .  S
C428        C434   1.397       .  A
C428        C429   1.412       .  A
C428       C1267   1.403       .  A
C429        C431   1.401       .  A
C429        C430   1.395       .  A
C430       C1265   1.405       .  A
C430        H437   1.084   1_545  S
C431        C432   1.394       .  A
C431        H438   1.084   1_545  S
C432        C433   1.404       .  A
C432        H439   1.083       .  S
C433        C434   1.407       .  A
C434        H440   1.084       .  S
C441        C442   1.404       .  A
C441        C446   1.404       .  A
C442       C1283   1.398       .  A
C442        H451   1.084       .  S
C443        C444   1.402       .  A
C443       C1282   1.398       .  A
C443        H452   1.084       .  S
C444        C450   1.406       .  A
C444        C445   1.415       .  A
C445        C447   1.402       .  A
C445       C1286   1.406   1_545  A
C446       C1285   1.406       .  A
C446        H453   1.084       .  S
C447        C448   1.398       .  A
C447        H454   1.083   1_545  S
C448        C449   1.405       .  A
C448        H455   1.083       .  S
C449        C450   1.406       .  A
C450        H456   1.084       .  S
C457        C462   1.407       .  A
C457       C2138   1.401       .  A
C458        C459   1.390       .  A
C458       C2137   1.401   1_455  A
C458        H467   1.084       .  S
C459        C460   1.401       .  A
C459        H468   1.083       .  S
C460        C466   1.390       .  A
C460        C461   1.411       .  A
C461        C463   1.406       .  A
C461       C2142   1.399       .  A
C462       C2141   1.399       .  A
C462        H469   1.084       .  S
C463        C464   1.400       .  A
C463        H470   1.083       .  S
C464        C465   1.402       .  A
C464        H471   1.083       .  S
C465        C466   1.404       .  A
C466        H472   1.084       .  S
C473        C474   1.403       .  A
C473        C478   1.408       .  A
C474        C475   1.399       .  A
C474        H483   1.083       .  S
C475        C476   1.406       .  A
C475        H484   1.084       .  S
C476        C482   1.399       .  A
C476        C477   1.410       .  A
C477        C479   1.404       .  A
C477        C478   1.396       .  A
C478        H485   1.084       .  S
C479        C480   1.396       .  A
C479        H486   1.084       .  S
C480        C481   1.402       .  A
C480        H487   1.083       .  S
C481        C482   1.411       .  A
C482        H488   1.084       .  S
C489        C490   1.401       .  A
C489        C494   1.401       .  A
C490        C491   1.396       .  A
C490        H499   1.083       .  S
C491        C492   1.403       .  A
C491        H500   1.084       .  S
C492        C498   1.399       .  A
C492        C493   1.413       .  A
C493        C495   1.401       .  A
C493        C494   1.400       .  A
C494        H501   1.085       .  S
C495       C1336   1.396       .  A
C495        H502   1.084       .  S
C496        C497   1.406       .  A
C496       C1335   1.396       .  A
C496        H503   1.083   1_565  S
C497       C1338   1.408       .  A
C498       C1337   1.408       .  A
C498        H504   1.084       .  S
C505        C506   1.404       .  A
C505        C510   1.410       .  A
C506        C507   1.394       .  A
C506        H515   1.083       .  S
C507        C508   1.403       .  A
C507        H516   1.084       .  S
C508        C514   1.394       .  A
C508        C509   1.409       .  A
C509        C511   1.404       .  A
C509        C510   1.397       .  A
C510        H517   1.084       .  S
C511        C512   1.398       .  A
C511        H518   1.084       .  S
C512        C513   1.404       .  A
C512        H519   1.083       .  S
C513        C514   1.409       .  A
C514        H520   1.084       .  S
C521        C526   1.408       .  A
C521       C2202   1.407       .  A
C522        C523   1.394       .  A
C522       C2201   1.407       .  A
C522        H531   1.083       .  S
C523        C524   1.399       .  A
C523        H532   1.084       .  S
C524        C530   1.404       .  A
C524        C525   1.416       .  A
C525        C527   1.404       .  A
C525       C2206   1.410       .  A
C526       C2205   1.410       .  A
C526        H533   1.084   1_655  S
C527        C528   1.401       .  A
C527       H2214   1.084       .  S
C528        C529   1.406       .  A
C528        H535   1.083       .  S
C529        C530   1.402       .  A
C530        H536   1.085       .  S
H534       C2207   1.084       .  S
C537        C542   1.407       .  A
C537       C2218   1.404       .  A
C538        C539   1.402       .  A
C538       C2217   1.404       .  A
C538        H547   1.083       .  S
C539        C540   1.406       .  A
C539        H548   1.084       .  S
C540        C546   1.405       .  A
C540        C541   1.412       .  A
C541        C543   1.402       .  A
C541       C2222   1.400       .  A
C542       C2221   1.400       .  A
C542        H549   1.085   1_655  S
C543        C544   1.396       .  A
C543       H2230   1.084       .  S
C544        C545   1.405       .  A
C544        H551   1.083       .  S
C545        C546   1.412       .  A
C546        H552   1.084       .  S
H550       C2223   1.084   1_455  S
C553        C558   1.408       .  A
C553       C1394   1.405       .  A
C554        C555   1.395   1_565  A
C554       C1393   1.405       .  A
C554        H563   1.083   1_565  S
C555        C556   1.401       .  A
C555        H564   1.084       .  S
C556        C562   1.398       .  A
C556       C1397   1.412   1_545  A
C557        C559   1.403       .  A
C557        C558   1.401       .  A
C557       C1396   1.412       .  A
C558        H565   1.084       .  S
C559       C1400   1.398       .  A
C559        H566   1.084       .  S
C560        C561   1.404   1_565  A
C560       C1399   1.398       .  A
C560       H1407   1.083       .  S
C561        C562   1.406       .  A
C562        H568   1.085       .  S
H567       C1400   1.083       .  S
C569        C570   1.406       .  A
C569        C574   1.406       .  A
C570       C1411   1.405       .  A
C570        H579   1.083       .  S
C571        C572   1.406       .  A
C571       C1410   1.405   1_545  A
C571        H580   1.084       .  S
C572        C578   1.417       .  A
C572        C573   1.415   1_545  A
C573        C575   1.400       .  A
C573       C1414   1.410       .  A
C574       C1413   1.410       .  A
C574        H581   1.085       .  S
C575        C576   1.398   1_565  A
C575        H582   1.084       .  S
C576        C577   1.408       .  A
C576        H583   1.083       .  S
C577        C578   1.413       .  A
C578        H584   1.084       .  S
C585        C586   1.406       .  A
C585        C590   1.403       .  A
C586        C587   1.397       .  A
C586        H595   1.083       .  S
C587        C588   1.401       .  A
C587        H596   1.084       .  S
C588        C594   1.404       .  A
C588        C589   1.415       .  A
C589        C591   1.400       .  A
C589        C590   1.401       .  A
C590        H597   1.085       .  S
C591        C592   1.394       .  A
C591        H598   1.084       .  S
C592        C593   1.404       .  A
C592        H599   1.083       .  S
C593        C594   1.403       .  A
C594        H600   1.085       .  S
C601        C602   1.405       .  A
C601        C606   1.409       .  A
C602        C603   1.400       .  A
C602        H611   1.083       .  S
C603        C604   1.403   1_545  A
C603        H612   1.083       .  S
C604        C610   1.408       .  A
C604        C605   1.414       .  A
C605        C606   1.409   1_565  A
C605       C1447   1.404       .  A
C606        H613   1.084       .  S
C607        C608   1.401       .  A
C607       C1445   1.404       .  A
C607        H614   1.083       .  S
C608        C609   1.405       .  A
C608        H615   1.083       .  S
C609       C1450   1.408       .  A
C610       C1449   1.408       .  A
C610        H616   1.084       .  S
C617        C618   1.398       .  A
C617        C622   1.401       .  A
C618        C619   1.395       .  A
C618        H627   1.083       .  S
C619        C620   1.404       .  A
C619        H628   1.084       .  S
C620        C626   1.392       .  A
C620        C621   1.413       .  A
C621        C623   1.402       .  A
C621        C622   1.391       .  A
C622        H629   1.086       .  S
C623        C624   1.394       .  A
C623        H630   1.084       .  S
C624        C625   1.401       .  A
C624        H631   1.083       .  S
C625        C626   1.403       .  A
C626        H632   1.085       .  S
C633        C634   1.402       .  A
C633        C638   1.409       .  A
C634        C635   1.393       .  A
C634        H643   1.083       .  S
C635        C636   1.402       .  A
C635        H644   1.084       .  S
C636        C642   1.390       .  A
C636        C637   1.409       .  A
C637        C639   1.405       .  A
C637        C638   1.394       .  A
C638        H645   1.084       .  S
C639        C640   1.398       .  A
C639        H646   1.084       .  S
C640        C641   1.401       .  A
C640        H647   1.083       .  S
C641        C642   1.407       .  A
C642        H648   1.085       .  S
C649        C650   1.404       .  A
C649        C654   1.410       .  A
C650        C651   1.398       .  A
C650        H659   1.083       .  S
C651        C652   1.404       .  A
C651        H660   1.084       .  S
C652        C658   1.401       .  A
C652        C653   1.411       .  A
C653        C655   1.404       .  A
C653        C654   1.402       .  A
C654        H661   1.084       .  S
C655        C656   1.399       .  A
C655        H662   1.084       .  S
C656        C657   1.404       .  A
C656        H663   1.083       .  S
C657        C658   1.409       .  A
C658        H664   1.084       .  S
C665        C666   1.403   1_545  A
C665        C670   1.409       .  A
C666        C667   1.397       .  A
C666        H675   1.083       .  S
C667        C668   1.403       .  A
C667        H676   1.084       .  S
C668        C669   1.411   1_565  A
C668       C1514   1.398       .  A
C669        C671   1.404       .  A
C669        C670   1.399       .  A
C670        H677   1.084       .  S
C671       C1512   1.397   1_545  A
C671        H678   1.084       .  S
C672        C673   1.404       .  A
C672       C1511   1.397       .  A
C672        H679   1.083       .  S
C673        C674   1.409       .  A
C674       C1508   1.398       .  A
C674        H680   1.084       .  S
C681        C682   1.408       .  A
C681        C686   1.406       .  A
C682        C683   1.402       .  A
C682        H691   1.083       .  S
C683        C684   1.404       .  A
C683        H692   1.084       .  S
C684        C685   1.415       .  A
C684       C1530   1.411       .  A
C685        C687   1.401       .  A
C685        C686   1.405       .  A
C686        H693   1.085       .  S
C687       C1528   1.397   1_545  A
C687        H694   1.085   1_545  S
C688        C689   1.403       .  A
C688       C1527   1.397       .  A
C688        H695   1.083       .  S
C689        C690   1.407       .  A
C690       C1524   1.411       .  A
C690        H696   1.085       .  S
C697        C698   1.404       .  A
C697        C702   1.407       .  A
C698       C1539   1.395       .  A
C698        H707   1.083       .  S
C699       C1538   1.395       .  A
C699       C1540   1.402       .  A
C699        H708   1.084       .  S
C700        C701   1.412       .  A
C700       C1539   1.402       .  A
C700       C1546   1.398   1_545  A
C701        C703   1.404       .  A
C701        C702   1.401       .  A
C702        H709   1.084       .  S
C703        C704   1.399       .  A
C703        H710   1.084       .  S
C704       C1545   1.404       .  A
C704        H711   1.083       .  S
C705        C706   1.407       .  A
C705       C1544   1.404       .  A
C706       C1540   1.398       .  A
C706        H712   1.084       .  S
C713        C714   1.404       .  A
C713        C718   1.404       .  A
C714        C715   1.399       .  A
C714        H723   1.083       .  S
C715        C716   1.405       .  A
C715        H724   1.084       .  S
C716        C722   1.401       .  A
C716        C717   1.412       .  A
C717        C719   1.401       .  A
C717        C718   1.396       .  A
C718        H725   1.085       .  S
C719        C720   1.393       .  A
C719        H726   1.084       .  S
C720        C721   1.403       .  A
C720        H727   1.083       .  S
C721        C722   1.408       .  A
C722        H728   1.084       .  S
C729        C730   1.407       .  A
C729        C734   1.405       .  A
C730        C731   1.402       .  A
C730        H739   1.083       .  S
C731        C732   1.404       .  A
C731        H740   1.084       .  S
C732        C738   1.410       .  A
C732        C733   1.414       .  A
C733        C735   1.399       .  A
C733        C734   1.402       .  A
C734        H741   1.084       .  S
C735        C736   1.394       .  A
C735        H742   1.084       .  S
C736        C737   1.406       .  A
C736        H743   1.083       .  S
C737        C738   1.409       .  A
C738        H744   1.084       .  S
C745        C746   1.408       .  A
C745       C2430   1.406   1_455  A
C746        C747   1.405       .  A
C746        H755   1.083       .  S
C747       C2428   1.405   1_455  A
C747        H756   1.083       .  S
C748        C754   1.417       .  A
C748        C749   1.416       .  A
C748       C2427   1.405       .  A
C749        C751   1.399       .  A
C749        C750   1.408       .  A
C750       C2425   1.406       .  A
C750        H757   1.084       .  S
C751        C752   1.395       .  A
C751        H758   1.084       .  S
C752        C753   1.408       .  A
C752        H759   1.083       .  S
C753        C754   1.410       .  A
C754        H760   1.084       .  S
C761        C762   1.405       .  A
C761        C766   1.409       .  A
C762        C763   1.394       .  A
C762        H771   1.084       .  S
C763        C764   1.400       .  A
C763        H772   1.084       .  S
C764        C770   1.403       .  A
C764        C765   1.415       .  A
C765        C767   1.405       .  A
C765        C766   1.412       .  A
C766        H773   1.084       .  S
C767        C768   1.404       .  A
C767        H774   1.083       .  S
C768        C769   1.406       .  A
C768        H775   1.083       .  S
C769        C770   1.405       .  A
C770        H776   1.085       .  S
C777        C881   1.477       .  S
C777        C782   1.407       .  A
C777       C1618   1.406       .  A
C778       C1617   1.406       .  A
C778       C1619   1.397       .  A
C778        H787   1.083       .  S
C779        C780   1.402       .  A
C779       C1618   1.397       .  A
C779        H788   1.084       .  S
C780        C786   1.401       .  A
C780        C781   1.413       .  A
C781        C783   1.402       .  A
C781        C782   1.398       .  A
C782        H789   1.084       .  S
C783        C784   1.395       .  A
C783        H790   1.084       .  S
C784        C785   1.404       .  A
C784        H791   1.083       .  S
C785        C786   1.405       .  A
C786        H792   1.085       .  S
C793        C794   1.409       .  A
C793        C798   1.401       .  A
C794        C795   1.392       .  A
C794        H803   1.084       .  S
C795        C796   1.396       .  A
C795        H804   1.084       .  S
C796        C802   1.405       .  A
C796        C797   1.419       .  A
C797        C799   1.398       .  A
C797        C798   1.407       .  A
C798        H805   1.084       .  S
C799        C800   1.395       .  A
C799        H806   1.083       .  S
C800        C801   1.408       .  A
C800        H807   1.083       .  S
C801        C802   1.400       .  A
C802        H808   1.084       .  S
C809        C810   1.403       .  A
C809        C814   1.401   1_554  A
C810        C811   1.397       .  A
C810        H819   1.083       .  S
C811        C812   1.403   1_554  A
C811       H2500   1.084       .  S
C812        C813   1.414       .  A
C812       C2498   1.400       .  A
C813        C815   1.400       .  A
C813        C814   1.397       .  A
C814        H821   1.085       .  S
C815        C816   1.393       .  A
C815        H822   1.084       .  S
C816       C2497   1.405       .  A
C816        H823   1.083       .  S
C817        C818   1.406       .  A
C817       C2496   1.405       .  A
C818       C2492   1.400       .  A
C818        H824   1.084   1_655  S
H820       C2491   1.084   1_455  S
C825        C826   1.404       .  A
C825        C830   1.406       .  A
C826        C827   1.398       .  A
C826        H835   1.083       .  S
C827        C828   1.403       .  A
C827        H836   1.084       .  S
C828        C834   1.401       .  A
C828        C829   1.413       .  A
C829        C831   1.403   1_554  A
C829        C830   1.399       .  A
C830        H837   1.084       .  S
C831        C832   1.396       .  A
C831        H838   1.084       .  S
C832        C833   1.401       .  A
C832        H839   1.083       .  S
C833        C834   1.404   1_556  A
C834        H840   1.085       .  S
Fe841       O857   2.050       .  S
Fe841       O847   2.102   1_556  S
Fe841       O854   2.102       .  S
Fe841       O846   2.039       .  S
Fe841       O852   1.959       .  S
Fe842       O845   2.036   1_455  S
Fe842       O849   2.055       .  S
Fe842       O853   2.031       .  S
Fe842       O858   2.086       .  S
Fe842       O852   1.953       .  S
Fe843       O861   2.085   1_455  S
Fe843       O848   2.075       .  S
Fe843       O855   2.082       .  S
Fe843       O844   2.070       .  S
Fe843       O852   1.962       .  S
O844        C851   1.265       .  A
O845       C2539   1.258       .  A
O846        C851   1.261       .  A
O847        C850   1.282       .  A
O848        C860   1.274       .  A
O849        C862   1.265       .  A
C850        O855   1.280   1_554  A
C850       C1585   1.491       .  S
C851       C1673   1.464       .  S
O853        C856   1.266       .  A
O854        C856   1.279       .  A
C856       C1641   1.474       .  S
O857        C862   1.264       .  A
O858        C860   1.276       .  A
C859       O2525   1.258       .  A
C859       O2541   1.268       .  A
C859       C1625   1.469       .  S
C860       C1601   1.480       .  S
O861       C2539   1.268       .  A
C862       C1657   1.473   1_455  S
Fe863       O879   2.034       .  S
Fe863       O869   2.104       .  S
Fe863       O876   2.106       .  S
Fe863       O868   2.039       .  S
Fe863       O874   1.962       .  S
Fe864       O867   2.031   1_565  S
Fe864       O871   2.071       .  S
Fe864       O875   2.025       .  S
Fe864       O880   2.087       .  S
Fe864       O874   1.956       .  S
Fe865       O883   2.089       .  S
Fe865       O870   2.063       .  S
Fe865       O877   2.067       .  S
Fe865       O866   2.062       .  S
Fe865       O874   1.965       .  S
O866        C873   1.264       .  A
O867        C881   1.260       .  A
O868        C873   1.259       .  A
O869        C872   1.283       .  A
O870        C882   1.271       .  A
O871        C884   1.266       .  A
C872        O877   1.278       .  A
C872       C1529   1.478       .  S
C873       C1561   1.473       .  S
O875        C878   1.266       .  A
O876        C878   1.280       .  A
C878       C1633   1.475       .  S
O879        C884   1.260       .  A
O880        C882   1.275       .  A
C881        O883   1.270   1_545  A
C882       C1569   1.483       .  S
C884       C1545   1.476   1_565  S
Fe885       O901   2.066       .  S
Fe885       O891   2.059       .  S
Fe885       O898   2.059       .  S
Fe885       O890   2.049       .  S
Fe885       O896   1.952       .  S
Fe886       O889   2.044       .  S
Fe886       O893   2.070       .  S
Fe886       O897   2.049       .  S
Fe886       O902   2.073       .  S
Fe886       O896   1.948       .  S
Fe887       O905   2.052       .  S
Fe887       O892   2.088       .  S
Fe887       O899   2.076       .  S
Fe887       O888   2.066       .  S
Fe887       O896   1.950       .  S
O888        C895   1.268       .  A
O889        C903   1.265       .  A
O890        C895   1.264       .  A
O891        C894   1.273       .  A
O892        C904   1.275       .  A
O893        C906   1.271       .  A
C894        O899   1.275       .  A
C894       C1433   1.470       .  S
C895       C1513   1.477       .  S
O897        C900   1.266       .  A
O898        C900   1.270       .  A
C900       C1473   1.468       .  S
O901        C906   1.268       .  A
O902        C904   1.273       .  A
C903        O905   1.265       .  A
C903       C1465   1.458       .  S
C904       C1449   1.483       .  S
C906       C1489   1.479       .  S
Fe907       O923   2.047       .  S
Fe907       O913   2.080       .  S
Fe907       O920   2.075       .  S
Fe907       O912   2.047       .  S
Fe907       O918   1.984       .  S
Fe908       O911   2.017   1_455  S
Fe908       O915   2.082       .  S
Fe908       O919   2.024       .  S
Fe908       O924   2.090       .  S
Fe908       O918   1.973       .  S
Fe909       O927   2.064       .  S
Fe909       O914   2.080       .  S
Fe909       O921   2.067       .  S
Fe909       O910   2.059       .  S
Fe909       O918   1.972       .  S
O910        C917   1.265       .  A
O911       C2605   1.259       .  A
O912        C917   1.263       .  A
O913        C916   1.274       .  A
O914        C926   1.273       .  A
O915        C928   1.270       .  A
C916        O921   1.273       .  A
C916       C1361   1.483   1_455  S
C917       C1393   1.476       .  S
O919        C922   1.264       .  A
O920        C922   1.272       .  A
C922       C1481   1.468       .  S
O923        C928   1.264       .  A
O924        C926   1.275       .  A
C925       O2591   1.259       .  A
C925       O2607   1.266       .  A
C925       C1457   1.452       .  S
C926       C1409   1.488       .  S
O927       C2605   1.266   1_455  A
C928       C1377   1.479   1_455  S
Fe929       O945   2.046       .  S
Fe929       O935   2.070       .  S
Fe929       O942   2.066       .  S
Fe929       O934   2.052       .  S
Fe929       O940   1.977       .  S
Fe930       O933   2.041       .  S
Fe930       O937   2.061       .  S
Fe930       O941   2.050       .  S
Fe930       O946   2.059       .  S
Fe930       O940   1.969       .  S
Fe931       O949   2.070       .  S
Fe931       O936   2.098       .  S
Fe931       O943   2.096       .  S
Fe931       O932   2.068       .  S
Fe931       O940   1.975       .  S
O932        C939   1.267       .  A
O933        C947   1.266       .  A
O934        C939   1.262       .  A
O935        C938   1.274       .  A
O936        C948   1.275       .  A
O937        C950   1.264       .  A
C938        O943   1.279       .  A
C938       C1441   1.485       .  S
C939       C1385   1.484       .  S
O941        C944   1.270       .  A
O942        C944   1.274       .  A
C944       C1345   1.474       .  S
O945        C950   1.262       .  A
O946        C948   1.270       .  A
C947        O949   1.271       .  A
C947       C1337   1.478       .  S
C948       C1593   1.490       .  S
C950       C1401   1.475       .  S
Fe951       O967   2.040       .  S
Fe951       O957   2.100   1_554  S
Fe951       O964   2.094       .  S
Fe951       O956   2.036       .  S
Fe951       O962   1.960       .  S
Fe952       O955   2.037       .  S
Fe952       O959   2.074       .  S
Fe952       O963   2.023       .  S
Fe952       O968   2.102       .  S
Fe952       O962   1.952       .  S
Fe953       O971   2.085       .  S
Fe953       O958   2.051       .  S
Fe953       O965   2.056       .  S
Fe953       O954   2.066       .  S
Fe953       O962   1.958       .  S
O954        C961   1.265       .  A
O955        C969   1.260       .  A
O956        C961   1.261       .  A
O957        C960   1.280       .  A
O958        C970   1.267       .  A
O959        C972   1.268       .  A
C960        O965   1.275   1_556  A
C960       C1577   1.483       .  S
C961       C1649   1.465       .  S
O963        C966   1.266       .  A
O964        C966   1.278       .  A
C966       C1353   1.476       .  S
O967        C972   1.264       .  A
O968        C970   1.276       .  A
C969        O971   1.270       .  A
C969       C1329   1.461       .  S
C970       C1369   1.477       .  S
C972       C1665   1.475       .  S
Fe973       O989   2.063       .  S
Fe973       O979   2.072       .  S
Fe973       O986   2.073       .  S
Fe973       O978   2.057       .  S
Fe973       O984   1.961       .  S
Fe974       O977   2.036       .  S
Fe974       O981   2.064       .  S
Fe974       O985   2.040       .  S
Fe974       O990   2.064       .  S
Fe974       O984   1.954       .  S
Fe975       O993   2.067       .  S
Fe975       O980   2.088       .  S
Fe975       O987   2.075       .  S
Fe975       O976   2.065       .  S
Fe975       O984   1.960       .  S
O976        C983   1.270       .  A
O977        C991   1.263       .  A
O978        C983   1.268       .  A
O979        C982   1.271       .  A
O980        C992   1.275       .  A
O981        C994   1.271       .  A
C982        O987   1.272       .  A
C982       C1609   1.483       .  S
C983       C1537   1.475       .  S
O985        C988   1.262       .  A
O986        C988   1.269       .  A
C988       C1321   1.475       .  S
O989        C994   1.272       .  A
O990        C992   1.271       .  A
C991        O993   1.267       .  A
C991       C1305   1.468       .  S
C992       C1289   1.478       .  S
C994       C1553   1.473       .  S
Fe995      O1011   2.060       .  S
Fe995      O1001   2.080       .  S
Fe995      O1008   2.074       .  S
Fe995      O1000   2.051       .  S
Fe995      O1006   1.952       .  S
Fe996       O999   2.056       .  S
Fe996      O1003   2.059       .  S
Fe996      O1007   2.055       .  S
Fe996      O1012   2.067       .  S
Fe996      O1006   1.949       .  S
Fe997      O1015   2.047       .  S
Fe997      O1002   2.095       .  S
Fe997      O1009   2.087       .  S
Fe997       O998   2.054       .  S
Fe997      O1006   1.938       .  S
O998       C1005   1.266       .  A
O999       C1013   1.264       .  A
O1000      C1005   1.265       .  A
O1001      C1004   1.276       .  A
O1002      C1014   1.279       .  A
O1003      C1016   1.270       .  A
C1004      O1009   1.277       .  A
C1004      C1241   1.489       .  S
C1005      C1273   1.472       .  S
O1007      C1010   1.266       .  A
O1008      C1010   1.271       .  A
C1010      C1313   1.475       .  S
O1011      C1016   1.270       .  A
O1012      C1014   1.274       .  A
C1013      O1015   1.264       .  A
C1013      C1297   1.463       .  S
C1014      C1521   1.486       .  S
C1016      C1249   1.465       .  S
Fe1017     O1033   2.040       .  S
Fe1017     O1023   2.098       .  S
Fe1017     O1030   2.093       .  S
Fe1017     O1022   2.034       .  S
Fe1017     O1028   1.954       .  S
Fe1018     O1021   2.031       .  S
Fe1018     O1025   2.076       .  S
Fe1018     O1029   2.030       .  S
Fe1018     O1034   2.092       .  S
Fe1018     O1028   1.948       .  S
Fe1019     O1037   2.093       .  S
Fe1019     O1024   2.046       .  S
Fe1019     O1031   2.047       .  S
Fe1019     O1020   2.069       .  S
Fe1019     O1028   1.958       .  S
O1020      C1027   1.266       .  A
O1021      C1035   1.260       .  A
O1022      C1027   1.260       .  A
O1023      C1026   1.281       .  A
O1024      C1036   1.268       .  A
O1025      C1038   1.269       .  A
C1026      O1031   1.275       .  A
C1026      C1153   1.481       .  S
C1027      C1217   1.466       .  S
O1029      C1032   1.266       .  A
O1030      C1032   1.278       .  A
C1032      C1193   1.473       .  S
O1033      C1038   1.263       .  A
O1034      C1036   1.276       .  A
C1035      O1037   1.271       .  A
C1035      C1177   1.477       .  S
C1036      C1425   1.475       .  S
C1038      C1201   1.473       .  S
Fe1039     O1055   2.033       .  S
Fe1039     O1045   2.111       .  S
Fe1039     O1052   2.100       .  S
Fe1039     O1044   2.032       .  S
Fe1039     O1050   1.963       .  S
Fe1040     O1043   2.033       .  S
Fe1040     O1047   2.073       .  S
Fe1040     O1051   2.029       .  S
Fe1040     O1056   2.102       .  S
Fe1040     O1050   1.957       .  S
Fe1041     O1059   2.088       .  S
Fe1041     O1046   2.072       .  S
Fe1041     O1053   2.077       .  S
Fe1041     O1042   2.081       .  S
Fe1041     O1050   1.964       .  S
O1042      C1049   1.267       .  A
O1043      C1057   1.259       .  A
O1044      C1049   1.258       .  A
O1045      C1048   1.283       .  A
O1046      C1058   1.273       .  A
O1047      C1060   1.266       .  A
C1048      O1053   1.280       .  A
C1048      C1417   1.496       .  S
C1049      C1497   1.480       .  S
O1051      C1054   1.268       .  A
O1052      C1054   1.281       .  A
C1054      C1185   1.473       .  S
O1055      C1060   1.259       .  A
O1056      C1058   1.278       .  A
C1057      O1059   1.269       .  A
C1057      C1169   1.464       .  S
C1058      C1145   1.490       .  S
C1060      C1505   1.476       .  S
Fe1061     O1077   2.029       .  S
Fe1061     O1067   2.086       .  S
Fe1061     O1074   2.083       .  S
Fe1061     O1066   2.033       .  S
Fe1061     O1072   1.950       .  S
Fe1062     O1065   2.035   1_565  S
Fe1062     O1069   2.064       .  S
Fe1062     O1073   2.041       .  S
Fe1062     O1078   2.072       .  S
Fe1062     O1072   1.951       .  S
Fe1063     O1081   2.076       .  S
Fe1063     O1068   2.068       .  S
Fe1063     O1075   2.067       .  S
Fe1063     O1064   2.059       .  S
Fe1063     O1072   1.965       .  S
O1064      C1071   1.264       .  A
O1065      C1079   1.261       .  A
O1066      C1071   1.260       .  A
O1067      C1070   1.278       .  A
O1068      C1080   1.273       .  A
O1069      C1082   1.266       .  A
C1070      O1075   1.277       .  A
C1070      C1281   1.475       .  S
C1071      C1257   1.465       .  S
O1073      C1076   1.268       .  A
O1074      C1076   1.276       .  A
C1076      C1121   1.478       .  S
O1077      C1082   1.261       .  A
O1078      C1080   1.274       .  A
C1079      O1081   1.268   1_545  A
C1080      C1161   1.472       .  S
C1082      C1265   1.469   1_565  S
Fe1083     O1099   2.029       .  S
Fe1083     O1089   2.103       .  S
Fe1083     O1096   2.094       .  S
Fe1083     O1088   2.032       .  S
Fe1083     O1094   1.954       .  S
Fe1084     O1087   2.031       .  S
Fe1084     O1091   2.072       .  S
Fe1084     O1095   2.029       .  S
Fe1084     O1100   2.106       .  S
Fe1084     O1094   1.952       .  S
Fe1085     O1103   2.087       .  S
Fe1085     O1090   2.066       .  S
Fe1085     O1097   2.078       .  S
Fe1085     O1086   2.078       .  S
Fe1085     O1094   1.959       .  S
O1086      C1093   1.267       .  A
O1087      C1101   1.257       .  A
O1088      C1093   1.259       .  A
O1089      C1092   1.282       .  A
O1090      C1102   1.274       .  A
O1091      C1104   1.267       .  A
C1092      O1097   1.279       .  A
C1092      C1137   1.495       .  S
C1093      C1209   1.471       .  S
O1095      C1098   1.266       .  A
O1096      C1098   1.278       .  A
C1098      C1129   1.478       .  S
O1099      C1104   1.261       .  A
O1100      C1102   1.279       .  A
C1101      O1103   1.268       .  A
C1101      C1113   1.458       .  S
C1102      C1233   1.487       .  S
C1104      C1225   1.466       .  S
C1105      C1106   1.405       .  A
C1105      C1110   1.406       .  A
C1106      C1107   1.396       .  A
C1107      C1108   1.401       .  A
C1107      H1116   1.084       .  S
C1108      C1114   1.399       .  A
C1108      C1109   1.414       .  A
C1109      C1111   1.402       .  A
C1109      C1110   1.397       .  A
C1110      H1117   1.085       .  S
C1111      C1112   1.395       .  A
C1111      H1118   1.084       .  S
C1112      C1113   1.402       .  A
C1112      H1119   1.083       .  S
C1113      C1114   1.401       .  A
C1114      H1120   1.085       .  S
C1121      C1122   1.409       .  A
C1121      C1126   1.402       .  A
C1122      C1123   1.395       .  A
C1122      H1131   1.083       .  S
C1123      C1124   1.399       .  A
C1123      H1132   1.084       .  S
C1124      C1130   1.404       .  A
C1124      C1125   1.415       .  A
C1125      C1127   1.396       .  A
C1125      C1126   1.400       .  A
C1126      H1133   1.084       .  S
C1127      C1128   1.391       .  A
C1127      H1134   1.084       .  S
C1128      C1129   1.410       .  A
C1128      H1135   1.083       .  S
C1129      C1130   1.403       .  A
C1130      H1136   1.084       .  S
C1137      C1138   1.408       .  A
C1137      C1142   1.410       .  A
C1138      C1139   1.403       .  A
C1138      H1147   1.083       .  S
C1139      C1140   1.404       .  A
C1139      H1148   1.084       .  S
C1140      C1146   1.413       .  A
C1140      C1141   1.414       .  A
C1141      C1143   1.402       .  A
C1141      C1142   1.410       .  A
C1142      H1149   1.084       .  S
C1143      C1144   1.399       .  A
C1143      H1150   1.084       .  S
C1144      C1145   1.407       .  A
C1144      H1151   1.083       .  S
C1145      C1146   1.410       .  A
C1146      H1152   1.084       .  S
C1153      C1154   1.407       .  A
C1153      C1158   1.404       .  A
C1154      C1155   1.402       .  A
C1154      H1163   1.083       .  S
C1155      C1156   1.405       .  A
C1155      H1164   1.083       .  S
C1156      C1162   1.408       .  A
C1156      C1157   1.414       .  A
C1157      C1159   1.397       .  A
C1157      C1158   1.396       .  A
C1158      H1165   1.084       .  S
C1159      C2840   1.389       .  A
C1159      H1166   1.084       .  S
C1160      C2839   1.389       .  A
C1160      C1161   1.405       .  A
C1160      H1167   1.084       .  S
C1161      C2842   1.407       .  A
C1162      C2841   1.407       .  A
C1162      H1168   1.084       .  S
C1169      C1170   1.402       .  A
C1170      C1171   1.393       .  A
C1170      H1179   1.083       .  S
C1171      H1180   1.084       .  S
C1172      C1178   1.396       .  A
C1172      C1173   1.412       .  A
C1173      C2855   1.404       .  A
C1173      C1174   1.402       .  A
C1174      H1181   1.085   1_565  S
C1175      C2853   1.404       .  A
C1175      C1176   1.400       .  A
C1175      H1182   1.084   1_565  S
C1176      C1177   1.405       .  A
C1176      H1183   1.083       .  S
C1177      C2858   1.407       .  A
C1178      C2857   1.407       .  A
C1178      H1184   1.084       .  S
C1185      C1186   1.408       .  A
C1185      C1190   1.401       .  A
C1186      C1187   1.392       .  A
C1186      H1195   1.083       .  S
C1187      C1188   1.397       .  A
C1187      H1196   1.084       .  S
C1188      C1194   1.402       .  A
C1188      C1189   1.417       .  A
C1189      C1191   1.398       .  A
C1189      C1190   1.404       .  A
C1190      H1197   1.084       .  S
C1191      C1192   1.394       .  A
C1191      H1198   1.084       .  S
C1192      C1193   1.409       .  A
C1192      H1199   1.083       .  S
C1193      C1194   1.400       .  A
C1194      H1200   1.084       .  S
C1201      C1202   1.403       .  A
C1201      C1206   1.406       .  A
C1202      C2883   1.398       .  A
C1202      H1211   1.083       .  S
C1203      C2882   1.398       .  A
C1203      C2884   1.404       .  A
C1203      H1212   1.084       .  S
C1204      C2883   1.404       .  A
C1204      C2890   1.400       .  A
C1204      C1205   1.413       .  A
C1205      C1207   1.403       .  A
C1205      C1206   1.400       .  A
C1206      H1213   1.085       .  S
C1207      C1208   1.397       .  A
C1207      H1214   1.084       .  S
C1208      C2889   1.403       .  A
C1208      H1215   1.083       .  S
C1209      C2888   1.403   1_455  A
C1209      C1210   1.406       .  A
C1210      C2884   1.400       .  A
C1210      H1216   1.085       .  S
C1217      C1218   1.402       .  A
C1217      C1222   1.404       .  A
C1218      C1219   1.396       .  A
C1218      H1227   1.083       .  S
C1219      C1220   1.403       .  A
C1219      H1228   1.084       .  S
C1220      C1226   1.397       .  A
C1220      C1221   1.413       .  A
C1221      C1223   1.403       .  A
C1221      C1222   1.397       .  A
C1222      H1229   1.085       .  S
C1223      C1224   1.396       .  A
C1223      H1230   1.084       .  S
C1224      C1225   1.402       .  A
C1224      H1231   1.083       .  S
C1225      C1226   1.405       .  A
C1226      H1232   1.085       .  S
C1233      C2914   1.407       .  A
C1233      C1238   1.407       .  A
C1234      C2913   1.407       .  A
C1234      C1235   1.402       .  A
C1234      H1243   1.083       .  S
C1235      C1236   1.404       .  A
C1235      H1244   1.084       .  S
C1236      C1242   1.413       .  A
C1236      C1237   1.415       .  A
C1237      C1239   1.402       .  A
C1237      C2918   1.410       .  A
C1238      C2917   1.410       .  A
C1238      H1245   1.084       .  S
C1239      C1240   1.399       .  A
C1239      H2926   1.084       .  S
C1240      C1241   1.407       .  A
C1240      H1247   1.083       .  S
C1241      C1242   1.409       .  A
C1242      H1248   1.084       .  S
H1246      C2919   1.084       .  S
C1249      C1250   1.402       .  A
C1249      C1254   1.404       .  A
C1250      C2931   1.396       .  A
C1250      H1259   1.083       .  S
C1251      C2930   1.396       .  A
C1251      C2932   1.403       .  A
C1251      H1260   1.084       .  S
C1252      C2931   1.403       .  A
C1252      C2938   1.396       .  A
C1252      C1253   1.413       .  A
C1253      C1255   1.401       .  A
C1253      C1254   1.394       .  A
C1254      H1261   1.085       .  S
C1255      C1256   1.393       .  A
C1255      H1262   1.084       .  S
C1256      C2937   1.403       .  A
C1256      H1263   1.083       .  S
C1257      C2936   1.403   1_455  A
C1257      C1258   1.404       .  A
C1258      C2932   1.396       .  A
C1258      H1264   1.085       .  S
C1265      C1266   1.403       .  A
C1266      C1267   1.396       .  A
C1266      H1275   1.083       .  S
C1267      H1276   1.084       .  S
C1268      C1274   1.397       .  A
C1268      C1269   1.412       .  A
C1269      C1271   1.401       .  A
C1269      C1270   1.395       .  A
C1270      H1277   1.084       .  S
C1271      C1272   1.394       .  A
C1271      H1278   1.084       .  S
C1272      C1273   1.404       .  A
C1272      H1279   1.083       .  S
C1273      C1274   1.407       .  A
C1274      H1280   1.084       .  S
C1281      C1282   1.404   1_565  A
C1281      C1286   1.404       .  A
C1282      H1291   1.084       .  S
C1283      C1284   1.402       .  A
C1283      H1292   1.084       .  S
C1284      C1290   1.406       .  A
C1284      C1285   1.415       .  A
C1285      C1287   1.402       .  A
C1286      H1293   1.084       .  S
C1287      C1288   1.398       .  A
C1287      H1294   1.083       .  S
C1288      C1289   1.405       .  A
C1288      H1295   1.083       .  S
C1289      C1290   1.406       .  A
C1290      H1296   1.084       .  S
C1297      C2978   1.401       .  A
C1297      C1302   1.407       .  A
C1298      C2977   1.401   1_455  A
C1298      C1299   1.390       .  A
C1298      H1307   1.084       .  S
C1299      C1300   1.401       .  A
C1299      H1308   1.083       .  S
C1300      C1306   1.390       .  A
C1300      C1301   1.411       .  A
C1301      C1303   1.406       .  A
C1301      C2982   1.399       .  A
C1302      C2981   1.399       .  A
C1302      H1309   1.084       .  S
C1303      C1304   1.400       .  A
C1303      H1310   1.083       .  S
C1304      C1305   1.402       .  A
C1304      H1311   1.083       .  S
C1305      C1306   1.404       .  A
C1306      H1312   1.084       .  S
C1313      C1314   1.403       .  A
C1313      C1318   1.408       .  A
C1314      C1315   1.399       .  A
C1314      H1323   1.083       .  S
C1315      C1316   1.406       .  A
C1315      H1324   1.084       .  S
C1316      C1322   1.399       .  A
C1316      C1317   1.410       .  A
C1317      C1319   1.404       .  A
C1317      C1318   1.396       .  A
C1318      H1325   1.084       .  S
C1319      C1320   1.396       .  A
C1319      H1326   1.084       .  S
C1320      C1321   1.402       .  A
C1320      H1327   1.083       .  S
C1321      C1322   1.411       .  A
C1322      H1328   1.084       .  S
C1329      C1330   1.401       .  A
C1329      C1334   1.401       .  A
C1330      C1331   1.396       .  A
C1330      H1339   1.083       .  S
C1331      C1332   1.403       .  A
C1331      H1340   1.084       .  S
C1332      C1338   1.399       .  A
C1332      C1333   1.413       .  A
C1333      C1335   1.401       .  A
C1333      C1334   1.400       .  A
C1334      H1341   1.085       .  S
C1335      H1342   1.084       .  S
C1336      C1337   1.406       .  A
C1336      H1343   1.083       .  S
C1338      H1344   1.084       .  S
C1345      C1346   1.404       .  A
C1345      C1350   1.410       .  A
C1346      C1347   1.394       .  A
C1346      H1355   1.083       .  S
C1347      C1348   1.403       .  A
C1347      H1356   1.084       .  S
C1348      C1354   1.394       .  A
C1348      C1349   1.409       .  A
C1349      C1351   1.404       .  A
C1349      C1350   1.397       .  A
C1350      H1357   1.084       .  S
C1351      C1352   1.398       .  A
C1351      H1358   1.084       .  S
C1352      C1353   1.404       .  A
C1352      H1359   1.083       .  S
C1353      C1354   1.409       .  A
C1354      H1360   1.084       .  S
C1361      C3042   1.407       .  A
C1361      C1366   1.408       .  A
C1362      C3041   1.407       .  A
C1362      C1363   1.394       .  A
C1362      H1371   1.083       .  S
C1363      C1364   1.399       .  A
C1363      H1372   1.084       .  S
C1364      C1370   1.404       .  A
C1364      C1365   1.416       .  A
C1365      C1367   1.404       .  A
C1365      C3046   1.410       .  A
C1366      C3045   1.410       .  A
C1366      H1373   1.084   1_655  S
C1367      C1368   1.401       .  A
C1367      H3054   1.084       .  S
C1368      C1369   1.406       .  A
C1368      H1375   1.083       .  S
C1369      C1370   1.402       .  A
C1370      H1376   1.085       .  S
H1374      C3047   1.084       .  S
C1377      C3058   1.404       .  A
C1377      C1382   1.407       .  A
C1378      C3057   1.404       .  A
C1378      C1379   1.402       .  A
C1378      H1387   1.083       .  S
C1379      C1380   1.406       .  A
C1379      H1388   1.084       .  S
C1380      C1386   1.405       .  A
C1380      C1381   1.412       .  A
C1381      C1383   1.402       .  A
C1381      C3062   1.400       .  A
C1382      C3061   1.400       .  A
C1382      H1389   1.085   1_655  S
C1383      C1384   1.396       .  A
C1383      H3070   1.084       .  S
C1384      C1385   1.405       .  A
C1384      H1391   1.083       .  S
C1385      C1386   1.412       .  A
C1386      H1392   1.084       .  S
H1390      C3063   1.084   1_455  S
C1393      C1398   1.408       .  A
C1394      C1395   1.395       .  A
C1394      H1403   1.083       .  S
C1395      C1396   1.401       .  A
C1395      H1404   1.084       .  S
C1396      C1402   1.398       .  A
C1397      C1399   1.403       .  A
C1397      C1398   1.401       .  A
C1398      H1405   1.084       .  S
C1399      H1406   1.084       .  S
C1400      C1401   1.404       .  A
C1401      C1402   1.406       .  A
C1402      H1408   1.085       .  S
C1409      C1410   1.406       .  A
C1409      C1414   1.406       .  A
C1410      H1419   1.083       .  S
C1411      C1412   1.406       .  A
C1411      H1420   1.084       .  S
C1412      C1418   1.417       .  A
C1412      C1413   1.415       .  A
C1413      C1415   1.400       .  A
C1414      H1421   1.085       .  S
C1415      C1416   1.398       .  A
C1415      H1422   1.084       .  S
C1416      C1417   1.408       .  A
C1416      H1423   1.083       .  S
C1417      C1418   1.413       .  A
C1418      H1424   1.084       .  S
C1425      C1426   1.406       .  A
C1425      C1430   1.403       .  A
C1426      C1427   1.397       .  A
C1426      H1435   1.083       .  S
C1427      C1428   1.401       .  A
C1427      H1436   1.084       .  S
C1428      C1434   1.404       .  A
C1428      C1429   1.415       .  A
C1429      C1431   1.400       .  A
C1429      C1430   1.401       .  A
C1430      H1437   1.085       .  S
C1431      C1432   1.394       .  A
C1431      H1438   1.084       .  S
C1432      C1433   1.404       .  A
C1432      H1439   1.083       .  S
C1433      C1434   1.403       .  A
C1434      H1440   1.085       .  S
C1441      C1442   1.405       .  A
C1441      C1446   1.409       .  A
C1442      C1443   1.400       .  A
C1442      H1451   1.083       .  S
C1443      C1444   1.403       .  A
C1443      H1452   1.083       .  S
C1444      C1450   1.408       .  A
C1444      C1445   1.414       .  A
C1445      C1446   1.409       .  A
C1446      H1453   1.084       .  S
C1447      C1448   1.401       .  A
C1447      H1454   1.083       .  S
C1448      C1449   1.405       .  A
C1448      H1455   1.083       .  S
C1450      H1456   1.084       .  S
C1457      C1458   1.398       .  A
C1457      C1462   1.401       .  A
C1458      C1459   1.395       .  A
C1458      H1467   1.083       .  S
C1459      C1460   1.404       .  A
C1459      H1468   1.084       .  S
C1460      C1466   1.392       .  A
C1460      C1461   1.413       .  A
C1461      C1463   1.402       .  A
C1461      C1462   1.391       .  A
C1462      H1469   1.086       .  S
C1463      C1464   1.394       .  A
C1463      H1470   1.084       .  S
C1464      C1465   1.401       .  A
C1464      H1471   1.083       .  S
C1465      C1466   1.403       .  A
C1466      H1472   1.085       .  S
C1473      C1474   1.402       .  A
C1473      C1478   1.409       .  A
C1474      C1475   1.393       .  A
C1474      H1483   1.083       .  S
C1475      C1476   1.402       .  A
C1475      H1484   1.084       .  S
C1476      C1482   1.390       .  A
C1476      C1477   1.409       .  A
C1477      C1479   1.405       .  A
C1477      C1478   1.394       .  A
C1478      H1485   1.084       .  S
C1479      C1480   1.398       .  A
C1479      H1486   1.084       .  S
C1480      C1481   1.401       .  A
C1480      H1487   1.083       .  S
C1481      C1482   1.407       .  A
C1482      H1488   1.085       .  S
C1489      C1490   1.404       .  A
C1489      C1494   1.410       .  A
C1490      C1491   1.398       .  A
C1490      H1499   1.083       .  S
C1491      C1492   1.404       .  A
C1491      H1500   1.084       .  S
C1492      C1498   1.401       .  A
C1492      C1493   1.411       .  A
C1493      C1495   1.404       .  A
C1493      C1494   1.402       .  A
C1494      H1501   1.084       .  S
C1495      C1496   1.399       .  A
C1495      H1502   1.084       .  S
C1496      C1497   1.404       .  A
C1496      H1503   1.083       .  S
C1497      C1498   1.409       .  A
C1498      H1504   1.084       .  S
C1505      C1506   1.403       .  A
C1505      C1510   1.409       .  A
C1506      C1507   1.397       .  A
C1506      H1515   1.083       .  S
C1507      C1508   1.403       .  A
C1507      H1516   1.084       .  S
C1508      C1509   1.411       .  A
C1509      C1511   1.404       .  A
C1509      C1510   1.399       .  A
C1510      H1517   1.084       .  S
C1511      H1518   1.084       .  S
C1512      C1513   1.404       .  A
C1512      H1519   1.083   1_565  S
C1513      C1514   1.409       .  A
C1514      H1520   1.084       .  S
C1521      C1522   1.408       .  A
C1521      C1526   1.406       .  A
C1522      C1523   1.402       .  A
C1522      H1531   1.083       .  S
C1523      C1524   1.404       .  A
C1523      H1532   1.084       .  S
C1524      C1525   1.415       .  A
C1525      C1527   1.401       .  A
C1525      C1526   1.405       .  A
C1526      H1533   1.085       .  S
C1527      H1534   1.085       .  S
C1528      C1529   1.403       .  A
C1528      H1535   1.083       .  S
C1529      C1530   1.407   1_565  A
C1530      H1536   1.085       .  S
C1537      C1538   1.404       .  A
C1537      C1542   1.407       .  A
C1538      H1547   1.083       .  S
C1539      H1548   1.084   1_545  S
C1540      C1541   1.412       .  A
C1541      C1543   1.404       .  A
C1541      C1542   1.401       .  A
C1542      H1549   1.084       .  S
C1543      C1544   1.399       .  A
C1543      H1550   1.084       .  S
C1544      H1551   1.083       .  S
C1545      C1546   1.407   1_545  A
C1546      H1552   1.084       .  S
C1553      C1554   1.404       .  A
C1553      C1558   1.404       .  A
C1554      C1555   1.399       .  A
C1554      H1563   1.083       .  S
C1555      C1556   1.405       .  A
C1555      H1564   1.084       .  S
C1556      C1562   1.401       .  A
C1556      C1557   1.412       .  A
C1557      C1559   1.401       .  A
C1557      C1558   1.396       .  A
C1558      H1565   1.085       .  S
C1559      C1560   1.393       .  A
C1559      H1566   1.084       .  S
C1560      C1561   1.403       .  A
C1560      H1567   1.083       .  S
C1561      C1562   1.408       .  A
C1562      H1568   1.084       .  S
C1569      C1570   1.407       .  A
C1569      C1574   1.405       .  A
C1570      C1571   1.402       .  A
C1570      H1579   1.083       .  S
C1571      C1572   1.404       .  A
C1571      H1580   1.084       .  S
C1572      C1578   1.410       .  A
C1572      C1573   1.414       .  A
C1573      C1575   1.399       .  A
C1573      C1574   1.402       .  A
C1574      H1581   1.084       .  S
C1575      C1576   1.394       .  A
C1575      H1582   1.084       .  S
C1576      C1577   1.406       .  A
C1576      H1583   1.083       .  S
C1577      C1578   1.409       .  A
C1578      H1584   1.084       .  S
C1585      C1586   1.408       .  A
C1585      C3270   1.406   1_455  A
C1586      C1587   1.405       .  A
C1586      H1595   1.083       .  S
C1587      C3268   1.405   1_455  A
C1587      H1596   1.083       .  S
C1588      C3267   1.405       .  A
C1588      C1594   1.417       .  A
C1588      C1589   1.416       .  A
C1589      C1591   1.399       .  A
C1589      C1590   1.408       .  A
C1590      C3265   1.406       .  A
C1590      H1597   1.084       .  S
C1591      C1592   1.395       .  A
C1591      H1598   1.084       .  S
C1592      C1593   1.408       .  A
C1592      H1599   1.083       .  S
C1593      C1594   1.410       .  A
C1594      H1600   1.084       .  S
C1601      C1602   1.405       .  A
C1601      C1606   1.409       .  A
C1602      C1603   1.394       .  A
C1602      H1611   1.084       .  S
C1603      C1604   1.400       .  A
C1603      H1612   1.084       .  S
C1604      C1610   1.403       .  A
C1604      C1605   1.415       .  A
C1605      C1607   1.405       .  A
C1605      C1606   1.412       .  A
C1606      H1613   1.084       .  S
C1607      C1608   1.404       .  A
C1607      H1614   1.083       .  S
C1608      C1609   1.406       .  A
C1608      H1615   1.083       .  S
C1609      C1610   1.405       .  A
C1610      H1616   1.085       .  S
C1617      C1622   1.407       .  A
C1618      H1627   1.083       .  S
C1619      C1620   1.402       .  A
C1619      H1628   1.084       .  S
C1620      C1626   1.401       .  A
C1620      C1621   1.413       .  A
C1621      C1623   1.402       .  A
C1621      C1622   1.398       .  A
C1622      H1629   1.084       .  S
C1623      C1624   1.395       .  A
C1623      H1630   1.084       .  S
C1624      C1625   1.404       .  A
C1624      H1631   1.083       .  S
C1625      C1626   1.405       .  A
C1626      H1632   1.085       .  S
C1633      C1634   1.409       .  A
C1633      C1638   1.401       .  A
C1634      C1635   1.392       .  A
C1634      H1643   1.084       .  S
C1635      C1636   1.396       .  A
C1635      H1644   1.084       .  S
C1636      C1642   1.405       .  A
C1636      C1637   1.419       .  A
C1637      C1639   1.398       .  A
C1637      C1638   1.407       .  A
C1638      H1645   1.084       .  S
C1639      C1640   1.395       .  A
C1639      H1646   1.083       .  S
C1640      C1641   1.408       .  A
C1640      H1647   1.083       .  S
C1641      C1642   1.400       .  A
C1642      H1648   1.084       .  S
C1649      C1650   1.403       .  A
C1649      C1654   1.401   1_554  A
C1650      C1651   1.397       .  A
C1650      H1659   1.083       .  S
C1651      C1652   1.403   1_554  A
C1651      H3340   1.084       .  S
C1652      C3338   1.400       .  A
C1652      C1653   1.414       .  A
C1653      C1655   1.400       .  A
C1653      C1654   1.397       .  A
C1654      H1661   1.085       .  S
C1655      C1656   1.393       .  A
C1655      H1662   1.084       .  S
C1656      C3337   1.405       .  A
C1656      H1663   1.083       .  S
C1657      C3336   1.405       .  A
C1657      C1658   1.406       .  A
C1658      C3332   1.400       .  A
C1658      H1664   1.084   1_655  S
H1660      C3331   1.084   1_455  S
C1665      C1666   1.404       .  A
C1665      C1670   1.406       .  A
C1666      C1667   1.398       .  A
C1666      H1675   1.083       .  S
C1667      C1668   1.403       .  A
C1667      H1676   1.084       .  S
C1668      C1674   1.401       .  A
C1668      C1669   1.413       .  A
C1669      C1671   1.403   1_554  A
C1669      C1670   1.399       .  A
C1670      H1677   1.084       .  S
C1671      C1672   1.396       .  A
C1671      H1678   1.084       .  S
C1672      C1673   1.401       .  A
C1672      H1679   1.083       .  S
C1673      C1674   1.404   1_556  A
C1674      H1680   1.085       .  S
Fe1681     O1697   2.050       .  S
Fe1681     O1687   2.102   1_556  S
Fe1681     O1694   2.102       .  S
Fe1681     O1686   2.039       .  S
Fe1681     O1692   1.959       .  S
Fe1682     O1685   2.036       .  S
Fe1682     O1689   2.055       .  S
Fe1682     O1693   2.031       .  S
Fe1682     O1698   2.086       .  S
Fe1682     O1692   1.953       .  S
Fe1683     O1701   2.085       .  S
Fe1683     O1688   2.075       .  S
Fe1683     O1695   2.082       .  S
Fe1683     O1684   2.070       .  S
Fe1683     O1692   1.962       .  S
O1684      C1691   1.265       .  A
O1686      C1691   1.261       .  A
O1687      C1690   1.282       .  A
O1688      C1700   1.274       .  A
O1689      C1702   1.265       .  A
C1690      O1695   1.280   1_554  A
C1690      C2425   1.491       .  S
C1691      C2513   1.464       .  S
O1693      C1696   1.266       .  A
O1694      C1696   1.279       .  A
C1696      C2481   1.474       .  S
O1697      C1702   1.264       .  A
O1698      C1700   1.276       .  A
C1699      C2465   1.469       .  S
C1700      C2441   1.480       .  S
C1702      C2497   1.473       .  S
Fe1703     O1719   2.034       .  S
Fe1703     O1709   2.104       .  S
Fe1703     O1716   2.106       .  S
Fe1703     O1708   2.039       .  S
Fe1703     O1714   1.962       .  S
Fe1704     O1707   2.031       .  S
Fe1704     O1711   2.071       .  S
Fe1704     O1715   2.025       .  S
Fe1704     O1720   2.087       .  S
Fe1704     O1714   1.956       .  S
Fe1705     O1723   2.089       .  S
Fe1705     O1710   2.063       .  S
Fe1705     O1717   2.067       .  S
Fe1705     O1706   2.062       .  S
Fe1705     O1714   1.965       .  S
O1706      C1713   1.264       .  A
O1707      C1721   1.260       .  A
O1708      C1713   1.259       .  A
O1709      C1712   1.283       .  A
O1710      C1722   1.271       .  A
O1711      C1724   1.266       .  A
C1712      O1717   1.278       .  A
C1712      C2369   1.478       .  S
C1713      C2401   1.473       .  S
O1715      C1718   1.266       .  A
O1716      C1718   1.280       .  A
C1718      C2473   1.475       .  S
O1719      C1724   1.260       .  A
O1720      C1722   1.275       .  A
C1721      O1723   1.270       .  A
C1721      C3297   1.477       .  S
C1722      C2409   1.483       .  S
C1724      C2385   1.476       .  S
Fe1725     O1741   2.066       .  S
Fe1725     O1731   2.059       .  S
Fe1725     O1738   2.059       .  S
Fe1725     O1730   2.049       .  S
Fe1725     O1736   1.952       .  S
Fe1726     O1729   2.044       .  S
Fe1726     O1733   2.070       .  S
Fe1726     O1737   2.049       .  S
Fe1726     O1742   2.073       .  S
Fe1726     O1736   1.948       .  S
Fe1727     O1745   2.052       .  S
Fe1727     O1732   2.088       .  S
Fe1727     O1739   2.076       .  S
Fe1727     O1728   2.066       .  S
Fe1727     O1736   1.950       .  S
O1728      C1735   1.268       .  A
O1729      C1743   1.265       .  A
O1730      C1735   1.264       .  A
O1731      C1734   1.273       .  A
O1732      C1744   1.275       .  A
O1733      C1746   1.271       .  A
C1734      O1739   1.275       .  A
C1734      C2273   1.470       .  S
C1735      C2353   1.477       .  S
O1737      C1740   1.266       .  A
O1738      C1740   1.270       .  A
C1740      C2313   1.468       .  S
O1741      C1746   1.268       .  A
O1742      C1744   1.273       .  A
C1743      O1745   1.265       .  A
C1743      C2305   1.458       .  S
C1744      C2289   1.483       .  S
C1746      C2329   1.479       .  S
Fe1747     O1763   2.047       .  S
Fe1747     O1753   2.080       .  S
Fe1747     O1760   2.075       .  S
Fe1747     O1752   2.047       .  S
Fe1747     O1758   1.984       .  S
Fe1748     O1751   2.017       .  S
Fe1748     O1755   2.082       .  S
Fe1748     O1759   2.024       .  S
Fe1748     O1764   2.090       .  S
Fe1748     O1758   1.973       .  S
Fe1749     O1767   2.064       .  S
Fe1749     O1754   2.080       .  S
Fe1749     O1761   2.067       .  S
Fe1749     O1750   2.059       .  S
Fe1749     O1758   1.972       .  S
O1750      C1757   1.265       .  A
O1752      C1757   1.263       .  A
O1753      C1756   1.274       .  A
O1754      C1766   1.273       .  A
O1755      C1768   1.270       .  A
C1756      O1761   1.273       .  A
C1756      C2201   1.483       .  S
C1757      C2233   1.476       .  S
O1759      C1762   1.264       .  A
O1760      C1762   1.272       .  A
C1762      C2321   1.468       .  S
O1763      C1768   1.264       .  A
O1764      C1766   1.275       .  A
C1765      C2297   1.452       .  S
C1766      C2249   1.488       .  S
C1768      C2217   1.479       .  S
Fe1769     O1785   2.046       .  S
Fe1769     O1775   2.070       .  S
Fe1769     O1782   2.066       .  S
Fe1769     O1774   2.052       .  S
Fe1769     O1780   1.977       .  S
Fe1770     O1773   2.041       .  S
Fe1770     O1777   2.061       .  S
Fe1770     O1781   2.050       .  S
Fe1770     O1786   2.059       .  S
Fe1770     O1780   1.969       .  S
Fe1771     O1789   2.070       .  S
Fe1771     O1776   2.098       .  S
Fe1771     O1783   2.096       .  S
Fe1771     O1772   2.068       .  S
Fe1771     O1780   1.975       .  S
O1772      C1779   1.267       .  A
O1773      C1787   1.266       .  A
O1774      C1779   1.262       .  A
O1775      C1778   1.274       .  A
O1776      C1788   1.275       .  A
O1777      C1790   1.264       .  A
C1778      O1783   1.279       .  A
C1778      C2281   1.485       .  S
C1779      C2225   1.484       .  S
O1781      C1784   1.270       .  A
O1782      C1784   1.274       .  A
C1784      C2185   1.474       .  S
O1785      C1790   1.262       .  A
O1786      C1788   1.270       .  A
C1787      O1789   1.271       .  A
C1787      C2177   1.478   1_545  S
C1788      C2433   1.490       .  S
C1790      C2241   1.475       .  S
Fe1791     O1807   2.040       .  S
Fe1791     O1797   2.100   1_554  S
Fe1791     O1804   2.094       .  S
Fe1791     O1796   2.036       .  S
Fe1791     O1802   1.960       .  S
Fe1792     O1795   2.037       .  S
Fe1792     O1799   2.074       .  S
Fe1792     O1803   2.023       .  S
Fe1792     O1808   2.102       .  S
Fe1792     O1802   1.952       .  S
Fe1793     O1811   2.085       .  S
Fe1793     O1798   2.051       .  S
Fe1793     O1805   2.056       .  S
Fe1793     O1794   2.066       .  S
Fe1793     O1802   1.958       .  S
O1794      C1801   1.265       .  A
O1795      C1809   1.260       .  A
O1796      C1801   1.261       .  A
O1797      C1800   1.280       .  A
O1798      C1810   1.267       .  A
O1799      C1812   1.268       .  A
C1800      O1805   1.275   1_556  A
C1800      C2417   1.483       .  S
C1801      C2489   1.465       .  S
O1803      C1806   1.266       .  A
O1804      C1806   1.278       .  A
C1806      C2193   1.476       .  S
O1807      C1812   1.264       .  A
O1808      C1810   1.276       .  A
C1809      O1811   1.270       .  A
C1809      C2169   1.461       .  S
C1810      C2209   1.477       .  S
C1812      C2505   1.475       .  S
Fe1813     O1829   2.063       .  S
Fe1813     O1819   2.072       .  S
Fe1813     O1826   2.073       .  S
Fe1813     O1818   2.057       .  S
Fe1813     O1824   1.961       .  S
Fe1814     O1817   2.036       .  S
Fe1814     O1821   2.064       .  S
Fe1814     O1825   2.040       .  S
Fe1814     O1830   2.064       .  S
Fe1814     O1824   1.954       .  S
Fe1815     O1833   2.067       .  S
Fe1815     O1820   2.088       .  S
Fe1815     O1827   2.075       .  S
Fe1815     O1816   2.065       .  S
Fe1815     O1824   1.960       .  S
O1816      C1823   1.270       .  A
O1817      C1831   1.263       .  A
O1818      C1823   1.268       .  A
O1819      C1822   1.271       .  A
O1820      C1832   1.275       .  A
O1821      C1834   1.271       .  A
C1822      O1827   1.272       .  A
C1822      C2449   1.483       .  S
C1823      C2377   1.475       .  S
O1825      C1828   1.262       .  A
O1826      C1828   1.269       .  A
C1828      C2161   1.475       .  S
O1829      C1834   1.272       .  A
O1830      C1832   1.271       .  A
C1831      O1833   1.267       .  A
C1831      C2145   1.468       .  S
C1832      C2129   1.478       .  S
C1834      C2393   1.473       .  S
Fe1835     O1851   2.060       .  S
Fe1835     O1841   2.080       .  S
Fe1835     O1848   2.074       .  S
Fe1835     O1840   2.051       .  S
Fe1835     O1846   1.952       .  S
Fe1836     O1839   2.056       .  S
Fe1836     O1843   2.059       .  S
Fe1836     O1847   2.055       .  S
Fe1836     O1852   2.067       .  S
Fe1836     O1846   1.949       .  S
Fe1837     O1855   2.047       .  S
Fe1837     O1842   2.095       .  S
Fe1837     O1849   2.087       .  S
Fe1837     O1838   2.054       .  S
Fe1837     O1846   1.938       .  S
O1838      C1845   1.266       .  A
O1839      C1853   1.264       .  A
O1840      C1845   1.265       .  A
O1841      C1844   1.276       .  A
O1842      C1854   1.279       .  A
O1843      C1856   1.270       .  A
C1844      O1849   1.277       .  A
C1844      C2081   1.489       .  S
C1845      C2113   1.472       .  S
O1847      C1850   1.266       .  A
O1848      C1850   1.271       .  A
C1850      C2153   1.475       .  S
O1851      C1856   1.270       .  A
O1852      C1854   1.274       .  A
C1853      O1855   1.264       .  A
C1853      C2137   1.463       .  S
C1854      C2361   1.486       .  S
C1856      C2089   1.465       .  S
Fe1857     O1873   2.040       .  S
Fe1857     O1863   2.098       .  S
Fe1857     O1870   2.093       .  S
Fe1857     O1862   2.034       .  S
Fe1857     O1868   1.954       .  S
Fe1858     O1861   2.031       .  S
Fe1858     O1865   2.076       .  S
Fe1858     O1869   2.030       .  S
Fe1858     O1874   2.092       .  S
Fe1858     O1868   1.948       .  S
Fe1859     O1877   2.093       .  S
Fe1859     O1864   2.046       .  S
Fe1859     O1871   2.047       .  S
Fe1859     O1860   2.069       .  S
Fe1859     O1868   1.958       .  S
O1860      C1867   1.266       .  A
O1861      C1875   1.260       .  A
O1862      C1867   1.260       .  A
O1863      C1866   1.281       .  A
O1864      C1876   1.268       .  A
O1865      C1878   1.269       .  A
C1866      O1871   1.275       .  A
C1866      C1993   1.481       .  S
C1867      C2057   1.466       .  S
O1869      C1872   1.266       .  A
O1870      C1872   1.278       .  A
C1872      C2033   1.473       .  S
O1873      C1878   1.263       .  A
O1874      C1876   1.276       .  A
C1875      O1877   1.271       .  A
C1875      C2017   1.477   1_655  S
C1876      C2265   1.475       .  S
C1878      C2041   1.473       .  S
Fe1879     O1895   2.033       .  S
Fe1879     O1885   2.111       .  S
Fe1879     O1892   2.100       .  S
Fe1879     O1884   2.032       .  S
Fe1879     O1890   1.963       .  S
Fe1880     O1883   2.033       .  S
Fe1880     O1887   2.073       .  S
Fe1880     O1891   2.029       .  S
Fe1880     O1896   2.102       .  S
Fe1880     O1890   1.957       .  S
Fe1881     O1899   2.088       .  S
Fe1881     O1886   2.072       .  S
Fe1881     O1893   2.077       .  S
Fe1881     O1882   2.081       .  S
Fe1881     O1890   1.964       .  S
O1882      C1889   1.267       .  A
O1883      C1897   1.259       .  A
O1884      C1889   1.258       .  A
O1885      C1888   1.283       .  A
O1886      C1898   1.273       .  A
O1887      C1900   1.266       .  A
C1888      O1893   1.280       .  A
C1888      C2257   1.496       .  S
C1889      C2337   1.480       .  S
O1891      C1894   1.268       .  A
O1892      C1894   1.281       .  A
C1894      C2025   1.473       .  S
O1895      C1900   1.259       .  A
O1896      C1898   1.278       .  A
C1897      O1899   1.269       .  A
C1897      C2009   1.464   1_545  S
C1898      C1985   1.489       .  S
C1900      C2345   1.476       .  S
Fe1901     O1917   2.029       .  S
Fe1901     O1907   2.086       .  S
Fe1901     O1914   2.083       .  S
Fe1901     O1906   2.033       .  S
Fe1901     O1912   1.950       .  S
Fe1902     O1905   2.035       .  S
Fe1902     O1909   2.064       .  S
Fe1902     O1913   2.041       .  S
Fe1902     O1918   2.072       .  S
Fe1902     O1912   1.951       .  S
Fe1903     O1921   2.076       .  S
Fe1903     O1908   2.068       .  S
Fe1903     O1915   2.067       .  S
Fe1903     O1904   2.059       .  S
Fe1903     O1912   1.965       .  S
O1904      C1911   1.264       .  A
O1905      C1919   1.261       .  A
O1906      C1911   1.260       .  A
O1907      C1910   1.278       .  A
O1908      C1920   1.273       .  A
O1909      C1922   1.266       .  A
C1910      O1915   1.277       .  A
C1910      C2121   1.475       .  S
C1911      C2097   1.465       .  S
O1913      C1916   1.268       .  A
O1914      C1916   1.276       .  A
C1916      C1961   1.478       .  S
O1917      C1922   1.261       .  A
O1918      C1920   1.274       .  A
C1919      O1921   1.268       .  A
C1919      C2785   1.471       .  S
C1920      C2001   1.472       .  S
C1922      C2105   1.469       .  S
Fe1923     O1939   2.029       .  S
Fe1923     O1929   2.103       .  S
Fe1923     O1936   2.094       .  S
Fe1923     O1928   2.032       .  S
Fe1923     O1934   1.954       .  S
Fe1924     O1927   2.031       .  S
Fe1924     O1931   2.072       .  S
Fe1924     O1935   2.029       .  S
Fe1924     O1940   2.106       .  S
Fe1924     O1934   1.952       .  S
Fe1925     O1943   2.087       .  S
Fe1925     O1930   2.066       .  S
Fe1925     O1937   2.078       .  S
Fe1925     O1926   2.078       .  S
Fe1925     O1934   1.959       .  S
O1926      C1933   1.267       .  A
O1927      C1941   1.257       .  A
O1928      C1933   1.259       .  A
O1929      C1932   1.282       .  A
O1930      C1942   1.274       .  A
O1931      C1944   1.267       .  A
C1932      O1937   1.279       .  A
C1932      C1977   1.495       .  S
C1933      C2049   1.471       .  S
O1935      C1938   1.266       .  A
O1936      C1938   1.278       .  A
C1938      C1969   1.478       .  S
O1939      C1944   1.261       .  A
O1940      C1942   1.279       .  A
C1941      O1943   1.268       .  A
C1941      C1953   1.458       .  S
C1942      C2073   1.487       .  S
C1944      C2065   1.466       .  S
C1945      C2759   1.471       .  S
C1945      C1946   1.405       .  A
C1945      C1950   1.406       .  A
C1946      C1947   1.396       .  A
C1946      H2795   1.083       .  S
C1947      C1948   1.401       .  A
C1947      H1956   1.084       .  S
C1948      C1954   1.399       .  A
C1948      C1949   1.414       .  A
C1949      C1951   1.402       .  A
C1949      C1950   1.397       .  A
C1950      H1957   1.085       .  S
C1951      C1952   1.395       .  A
C1951      H1958   1.084       .  S
C1952      C1953   1.402       .  A
C1952      H1959   1.083       .  S
C1953      C1954   1.401       .  A
C1954      H1960   1.085       .  S
H1955      C2786   1.083       .  S
C1961      C1962   1.409       .  A
C1961      C1966   1.402       .  A
C1962      C1963   1.395       .  A
C1962      H1971   1.083       .  S
C1963      C1964   1.399       .  A
C1963      H1972   1.084       .  S
C1964      C1970   1.404       .  A
C1964      C1965   1.415       .  A
C1965      C1967   1.396       .  A
C1965      C1966   1.400       .  A
C1966      H1973   1.084       .  S
C1967      C1968   1.391       .  A
C1967      H1974   1.084       .  S
C1968      C1969   1.410       .  A
C1968      H1975   1.083       .  S
C1969      C1970   1.403       .  A
C1970      H1976   1.084       .  S
C1977      C1978   1.408       .  A
C1977      C1982   1.410       .  A
C1978      C1979   1.403       .  A
C1978      H1987   1.083       .  S
C1979      C1980   1.404       .  A
C1979      H1988   1.084       .  S
C1980      C1986   1.413       .  A
C1980      C1981   1.414       .  A
C1981      C1983   1.402       .  A
C1981      C1982   1.410       .  A
C1982      H1989   1.084       .  S
C1983      C1984   1.399       .  A
C1983      H1990   1.084       .  S
C1984      C1985   1.407       .  A
C1984      H1991   1.083       .  S
C1985      C1986   1.410       .  A
C1986      H1992   1.084       .  S
C1993      C1994   1.407       .  A
C1993      C1998   1.404       .  A
C1994      C1995   1.402       .  A
C1994      H2003   1.083       .  S
C1995      C1996   1.405       .  A
C1995      H2004   1.083       .  S
C1996      C2002   1.408   1_655  A
C1996      C1997   1.414       .  A
C1997      C1999   1.397   1_655  A
C1997      C1998   1.396       .  A
C1998      H2005   1.084       .  S
C1999      H2006   1.084       .  S
C2000      C2001   1.405       .  A
C2000      H2007   1.084       .  S
C2002      H2008   1.084   1_455  S
C2009      C2010   1.402       .  A
C2009      C2854   1.405       .  A
C2010      C2011   1.393       .  A
C2010      H2019   1.083       .  S
C2011      C2852   1.401       .  A
C2011      H2020   1.084       .  S
C2012      C2851   1.401       .  A
C2012      C2018   1.396       .  A
C2012      C2013   1.412       .  A
C2013      C2014   1.402       .  A
C2014      C2849   1.405       .  A
C2014      H2021   1.085       .  S
C2015      C2016   1.400       .  A
C2015      H2022   1.084       .  S
C2016      C2017   1.405       .  A
C2016      H2023   1.083   1_455  S
C2018      H2024   1.084       .  S
C2025      C2026   1.408       .  A
C2025      C2030   1.401       .  A
C2026      C2027   1.392       .  A
C2026      H2035   1.083       .  S
C2027      C2028   1.397       .  A
C2027      H2036   1.084       .  S
C2028      C2034   1.402       .  A
C2028      C2029   1.417       .  A
C2029      C2031   1.398       .  A
C2029      C2030   1.404       .  A
C2030      H2037   1.084       .  S
C2031      C2032   1.394       .  A
C2031      H2038   1.084       .  S
C2032      C2033   1.409       .  A
C2032      H2039   1.083       .  S
C2033      C2034   1.400       .  A
C2034      H2040   1.084       .  S
C2041      C2042   1.403   1_655  A
C2041      C2046   1.406       .  A
C2042      H2051   1.083       .  S
C2043      H2052   1.084       .  S
C2044      C2045   1.413   1_455  A
C2045      C2047   1.403       .  A
C2045      C2046   1.400       .  A
C2046      H2053   1.085       .  S
C2047      C2048   1.397       .  A
C2047      H2054   1.084       .  S
C2048      H2055   1.083       .  S
C2049      C2050   1.406       .  A
C2050      H2056   1.085       .  S
C2057      C2058   1.402       .  A
C2057      C2062   1.404       .  A
C2058      C2059   1.396       .  A
C2058      H2067   1.083       .  S
C2059      C2060   1.403       .  A
C2059      H2068   1.084       .  S
C2060      C2066   1.397       .  A
C2060      C2061   1.413       .  A
C2061      C2063   1.403       .  A
C2061      C2062   1.397       .  A
C2062      H2069   1.085       .  S
C2063      C2064   1.396       .  A
C2063      H2070   1.084       .  S
C2064      C2065   1.402       .  A
C2064      H2071   1.083       .  S
C2065      C2066   1.405       .  A
C2066      H2072   1.085       .  S
C2073      C2078   1.407       .  A
C2074      C2075   1.402   1_455  A
C2074      H2083   1.083       .  S
C2075      C2076   1.404       .  A
C2075      H2084   1.084       .  S
C2076      C2082   1.413       .  A
C2076      C2077   1.415   1_655  A
C2077      C2079   1.402       .  A
C2078      H2085   1.084       .  S
C2079      C2080   1.399   1_455  A
C2080      C2081   1.407       .  A
C2080      H2087   1.083       .  S
C2081      C2082   1.409       .  A
C2082      H2088   1.084       .  S
C2089      C2090   1.402   1_655  A
C2089      C2094   1.404       .  A
C2090      H2099   1.083       .  S
C2091      H2100   1.084       .  S
C2092      C2093   1.413   1_455  A
C2093      C2095   1.401       .  A
C2093      C2094   1.394       .  A
C2094      H2101   1.085       .  S
C2095      C2096   1.393       .  A
C2095      H2102   1.084       .  S
C2096      H2103   1.083       .  S
C2097      C2098   1.404       .  A
C2098      H2104   1.085       .  S
C2105      C2106   1.403       .  A
C2105      C2950   1.405       .  A
C2106      C2107   1.396       .  A
C2106      H2115   1.083       .  S
C2107      C2948   1.403       .  A
C2107      H2116   1.084       .  S
C2108      C2947   1.403       .  A
C2108      C2114   1.397       .  A
C2108      C2109   1.412       .  A
C2109      C2111   1.401       .  A
C2109      C2110   1.395       .  A
C2110      C2945   1.405       .  A
C2110      H2117   1.084   1_545  S
C2111      C2112   1.394       .  A
C2111      H2118   1.084   1_545  S
C2112      C2113   1.404       .  A
C2112      H2119   1.083       .  S
C2113      C2114   1.407       .  A
C2114      H2120   1.084       .  S
C2121      C2122   1.404       .  A
C2121      C2126   1.404       .  A
C2122      C2963   1.398       .  A
C2122      H2131   1.084       .  S
C2123      C2962   1.398       .  A
C2123      C2124   1.402       .  A
C2123      H2132   1.084       .  S
C2124      C2130   1.406       .  A
C2124      C2125   1.415       .  A
C2125      C2127   1.402       .  A
C2125      C2966   1.406   1_545  A
C2126      C2965   1.406       .  A
C2126      H2133   1.084       .  S
C2127      C2128   1.398       .  A
C2127      H2134   1.083   1_545  S
C2128      C2129   1.405       .  A
C2128      H2135   1.083       .  S
C2129      C2130   1.406       .  A
C2130      H2136   1.084       .  S
C2137      C2142   1.407   1_655  A
C2138      C2139   1.390       .  A
C2138      H2147   1.084       .  S
C2139      C2140   1.401       .  A
C2139      H2148   1.083       .  S
C2140      C2146   1.390       .  A
C2140      C2141   1.411       .  A
C2141      C2143   1.406       .  A
C2142      H2149   1.084   1_455  S
C2143      C2144   1.400       .  A
C2143      H2150   1.083       .  S
C2144      C2145   1.402       .  A
C2144      H2151   1.083       .  S
C2145      C2146   1.404       .  A
C2146      H2152   1.084       .  S
C2153      C2154   1.403       .  A
C2153      C2158   1.408       .  A
C2154      C2155   1.399       .  A
C2154      H2163   1.083       .  S
C2155      C2156   1.406       .  A
C2155      H2164   1.084       .  S
C2156      C2162   1.399       .  A
C2156      C2157   1.410       .  A
C2157      C2159   1.404       .  A
C2157      C2158   1.396       .  A
C2158      H2165   1.084       .  S
C2159      C2160   1.396       .  A
C2159      H2166   1.084       .  S
C2160      C2161   1.402       .  A
C2160      H2167   1.083       .  S
C2161      C2162   1.411       .  A
C2162      H2168   1.084       .  S
C2169      C2170   1.401       .  A
C2169      C2174   1.401       .  A
C2170      C2171   1.396       .  A
C2170      H2179   1.083       .  S
C2171      C2172   1.403       .  A
C2171      H2180   1.084       .  S
C2172      C2178   1.399       .  A
C2172      C2173   1.413       .  A
C2173      C2175   1.401       .  A
C2173      C2174   1.400       .  A
C2174      H2181   1.085       .  S
C2175      C3016   1.396       .  A
C2175      H2182   1.084       .  S
C2176      C3015   1.396       .  A
C2176      C2177   1.406       .  A
C2176      H2183   1.083   1_565  S
C2177      C3018   1.408       .  A
C2178      C3017   1.408       .  A
C2178      H2184   1.084       .  S
C2185      C2186   1.404       .  A
C2185      C2190   1.410       .  A
C2186      C2187   1.394       .  A
C2186      H2195   1.083       .  S
C2187      C2188   1.403       .  A
C2187      H2196   1.084       .  S
C2188      C2194   1.394       .  A
C2188      C2189   1.409       .  A
C2189      C2191   1.404       .  A
C2189      C2190   1.397       .  A
C2190      H2197   1.084       .  S
C2191      C2192   1.398       .  A
C2191      H2198   1.084       .  S
C2192      C2193   1.404       .  A
C2192      H2199   1.083       .  S
C2193      C2194   1.409       .  A
C2194      H2200   1.084       .  S
C2201      C2206   1.408       .  A
C2202      C2203   1.394       .  A
C2202      H2211   1.083       .  S
C2203      C2204   1.399       .  A
C2203      H2212   1.084       .  S
C2204      C2210   1.404       .  A
C2204      C2205   1.416       .  A
C2205      C2207   1.404       .  A
C2206      H2213   1.084       .  S
C2207      C2208   1.401       .  A
C2208      C2209   1.406       .  A
C2208      H2215   1.083       .  S
C2209      C2210   1.402       .  A
C2210      H2216   1.085       .  S
C2217      C2222   1.407       .  A
C2218      C2219   1.402       .  A
C2218      H2227   1.083       .  S
C2219      C2220   1.406       .  A
C2219      H2228   1.084       .  S
C2220      C2226   1.405       .  A
C2220      C2221   1.412       .  A
C2221      C2223   1.402       .  A
C2222      H2229   1.085       .  S
C2223      C2224   1.396       .  A
C2224      C2225   1.405       .  A
C2224      H2231   1.083       .  S
C2225      C2226   1.412       .  A
C2226      H2232   1.084       .  S
C2233      C3074   1.405       .  A
C2233      C2238   1.408       .  A
C2234      C3073   1.405       .  A
C2234      C2235   1.395   1_565  A
C2234      H2243   1.083   1_565  S
C2235      C2236   1.401       .  A
C2235      H2244   1.084       .  S
C2236      C2242   1.398       .  A
C2236      C3077   1.412   1_545  A
C2237      C3076   1.412       .  A
C2237      C2239   1.403       .  A
C2237      C2238   1.401       .  A
C2238      H2245   1.084       .  S
C2239      C3080   1.398       .  A
C2239      H2246   1.084       .  S
C2240      C3079   1.398       .  A
C2240      C2241   1.404   1_565  A
C2240      H3087   1.083       .  S
C2241      C2242   1.406       .  A
C2242      H2248   1.085       .  S
H2247      C3080   1.083       .  S
C2249      C2250   1.406       .  A
C2249      C2254   1.406       .  A
C2250      C3091   1.405       .  A
C2250      H2259   1.083       .  S
C2251      C3090   1.405   1_545  A
C2251      C2252   1.406       .  A
C2251      H2260   1.084       .  S
C2252      C2258   1.417       .  A
C2252      C2253   1.415   1_545  A
C2253      C2255   1.400       .  A
C2253      C3094   1.410       .  A
C2254      C3093   1.410       .  A
C2254      H2261   1.085       .  S
C2255      C2256   1.398   1_565  A
C2255      H2262   1.084       .  S
C2256      C2257   1.408       .  A
C2256      H2263   1.083       .  S
C2257      C2258   1.413       .  A
C2258      H2264   1.084       .  S
C2265      C2266   1.406       .  A
C2265      C2270   1.403       .  A
C2266      C2267   1.397       .  A
C2266      H2275   1.083       .  S
C2267      C2268   1.401       .  A
C2267      H2276   1.084       .  S
C2268      C2274   1.404       .  A
C2268      C2269   1.415       .  A
C2269      C2271   1.400       .  A
C2269      C2270   1.401       .  A
C2270      H2277   1.085       .  S
C2271      C2272   1.394       .  A
C2271      H2278   1.084       .  S
C2272      C2273   1.404       .  A
C2272      H2279   1.083       .  S
C2273      C2274   1.403       .  A
C2274      H2280   1.085       .  S
C2281      C2282   1.405       .  A
C2281      C2286   1.409       .  A
C2282      C2283   1.400       .  A
C2282      H2291   1.083       .  S
C2283      C2284   1.403   1_545  A
C2283      H2292   1.083       .  S
C2284      C2290   1.408       .  A
C2284      C2285   1.414       .  A
C2285      C3127   1.404       .  A
C2285      C2286   1.409   1_565  A
C2286      H2293   1.084       .  S
C2287      C3125   1.404       .  A
C2287      C2288   1.401       .  A
C2287      H2294   1.083       .  S
C2288      C2289   1.405       .  A
C2288      H2295   1.083       .  S
C2289      C3130   1.408       .  A
C2290      C3129   1.408       .  A
C2290      H2296   1.084       .  S
C2297      C2298   1.398       .  A
C2297      C2302   1.401       .  A
C2298      C2299   1.395       .  A
C2298      H2307   1.083       .  S
C2299      C2300   1.404       .  A
C2299      H2308   1.084       .  S
C2300      C2306   1.392       .  A
C2300      C2301   1.413       .  A
C2301      C2303   1.402       .  A
C2301      C2302   1.391       .  A
C2302      H2309   1.086       .  S
C2303      C2304   1.394       .  A
C2303      H2310   1.084       .  S
C2304      C2305   1.401       .  A
C2304      H2311   1.083       .  S
C2305      C2306   1.403       .  A
C2306      H2312   1.085       .  S
C2313      C2314   1.402       .  A
C2313      C2318   1.409       .  A
C2314      C2315   1.393       .  A
C2314      H2323   1.083       .  S
C2315      C2316   1.402       .  A
C2315      H2324   1.084       .  S
C2316      C2322   1.390       .  A
C2316      C2317   1.409       .  A
C2317      C2319   1.405       .  A
C2317      C2318   1.394       .  A
C2318      H2325   1.084       .  S
C2319      C2320   1.398       .  A
C2319      H2326   1.084       .  S
C2320      C2321   1.401       .  A
C2320      H2327   1.083       .  S
C2321      C2322   1.407       .  A
C2322      H2328   1.085       .  S
C2329      C2330   1.404       .  A
C2329      C2334   1.410       .  A
C2330      C2331   1.398       .  A
C2330      H2339   1.083       .  S
C2331      C2332   1.404       .  A
C2331      H2340   1.084       .  S
C2332      C2338   1.401       .  A
C2332      C2333   1.411       .  A
C2333      C2335   1.404       .  A
C2333      C2334   1.402       .  A
C2334      H2341   1.084       .  S
C2335      C2336   1.399       .  A
C2335      H2342   1.084       .  S
C2336      C2337   1.404       .  A
C2336      H2343   1.083       .  S
C2337      C2338   1.409       .  A
C2338      H2344   1.084       .  S
C2345      C2346   1.403   1_545  A
C2345      C2350   1.409       .  A
C2346      C2347   1.397       .  A
C2346      H2355   1.083       .  S
C2347      C2348   1.403       .  A
C2347      H2356   1.084       .  S
C2348      C3194   1.398       .  A
C2348      C2349   1.411   1_565  A
C2349      C2351   1.404       .  A
C2349      C2350   1.399       .  A
C2350      H2357   1.084       .  S
C2351      C3192   1.397   1_545  A
C2351      H2358   1.084       .  S
C2352      C3191   1.397       .  A
C2352      C2353   1.404       .  A
C2352      H2359   1.083       .  S
C2353      C2354   1.409       .  A
C2354      C3188   1.398       .  A
C2354      H2360   1.084       .  S
C2361      C2362   1.408       .  A
C2361      C2366   1.406       .  A
C2362      C2363   1.402       .  A
C2362      H2371   1.083       .  S
C2363      C2364   1.404       .  A
C2363      H2372   1.084       .  S
C2364      C3210   1.411       .  A
C2364      C2365   1.415       .  A
C2365      C2367   1.401       .  A
C2365      C2366   1.405       .  A
C2366      H2373   1.085       .  S
C2367      C3208   1.397   1_545  A
C2367      H2374   1.085   1_545  S
C2368      C3207   1.397       .  A
C2368      C2369   1.403       .  A
C2368      H2375   1.083       .  S
C2369      C2370   1.407       .  A
C2370      C3204   1.411       .  A
C2370      H2376   1.085       .  S
C2377      C2378   1.404       .  A
C2377      C2382   1.407       .  A
C2378      C3219   1.395       .  A
C2378      H2387   1.083       .  S
C2379      C3218   1.395       .  A
C2379      C3220   1.402       .  A
C2379      H2388   1.084       .  S
C2380      C3219   1.402       .  A
C2380      C3226   1.398   1_545  A
C2380      C2381   1.412       .  A
C2381      C2383   1.404       .  A
C2381      C2382   1.401       .  A
C2382      H2389   1.084       .  S
C2383      C2384   1.399       .  A
C2383      H2390   1.084       .  S
C2384      C3225   1.404       .  A
C2384      H2391   1.083       .  S
C2385      C3224   1.404       .  A
C2385      C2386   1.407       .  A
C2386      C3220   1.398       .  A
C2386      H2392   1.084       .  S
C2393      C2394   1.404       .  A
C2393      C2398   1.404       .  A
C2394      C2395   1.399       .  A
C2394      H2403   1.083       .  S
C2395      C2396   1.405       .  A
C2395      H2404   1.084       .  S
C2396      C2402   1.401       .  A
C2396      C2397   1.412       .  A
C2397      C2399   1.401       .  A
C2397      C2398   1.396       .  A
C2398      H2405   1.085       .  S
C2399      C2400   1.393       .  A
C2399      H2406   1.084       .  S
C2400      C2401   1.403       .  A
C2400      H2407   1.083       .  S
C2401      C2402   1.408       .  A
C2402      H2408   1.084       .  S
C2409      C2410   1.407       .  A
C2409      C2414   1.405       .  A
C2410      C2411   1.402       .  A
C2410      H2419   1.083       .  S
C2411      C2412   1.404       .  A
C2411      H2420   1.084       .  S
C2412      C2418   1.410       .  A
C2412      C2413   1.414       .  A
C2413      C2415   1.399       .  A
C2413      C2414   1.402       .  A
C2414      H2421   1.084       .  S
C2415      C2416   1.394       .  A
C2415      H2422   1.084       .  S
C2416      C2417   1.406       .  A
C2416      H2423   1.083       .  S
C2417      C2418   1.409       .  A
C2418      H2424   1.084       .  S
C2425      C2426   1.408       .  A
C2426      C2427   1.405       .  A
C2426      H2435   1.083       .  S
C2427      H2436   1.083       .  S
C2428      C2434   1.417       .  A
C2428      C2429   1.416       .  A
C2429      C2431   1.399       .  A
C2429      C2430   1.408       .  A
C2430      H2437   1.084       .  S
C2431      C2432   1.395       .  A
C2431      H2438   1.084       .  S
C2432      C2433   1.408       .  A
C2432      H2439   1.083       .  S
C2433      C2434   1.410       .  A
C2434      H2440   1.084       .  S
C2441      C2442   1.405       .  A
C2441      C2446   1.409       .  A
C2442      C2443   1.394       .  A
C2442      H2451   1.084       .  S
C2443      C2444   1.400       .  A
C2443      H2452   1.084       .  S
C2444      C2450   1.403       .  A
C2444      C2445   1.415       .  A
C2445      C2447   1.405       .  A
C2445      C2446   1.412       .  A
C2446      H2453   1.084       .  S
C2447      C2448   1.404       .  A
C2447      H2454   1.083       .  S
C2448      C2449   1.406       .  A
C2448      H2455   1.083       .  S
C2449      C2450   1.405       .  A
C2450      H2456   1.085       .  S
C2457      C2561   1.477       .  S
C2457      C3298   1.406       .  A
C2457      C2462   1.407       .  A
C2458      C3297   1.406       .  A
C2458      C3299   1.397       .  A
C2458      H2467   1.083       .  S
C2459      C3298   1.397       .  A
C2459      C2460   1.402       .  A
C2459      H2468   1.084       .  S
C2460      C2466   1.401       .  A
C2460      C2461   1.413       .  A
C2461      C2463   1.402       .  A
C2461      C2462   1.398       .  A
C2462      H2469   1.084       .  S
C2463      C2464   1.395       .  A
C2463      H2470   1.084       .  S
C2464      C2465   1.404       .  A
C2464      H2471   1.083       .  S
C2465      C2466   1.405       .  A
C2466      H2472   1.085       .  S
C2473      C2474   1.409       .  A
C2473      C2478   1.401       .  A
C2474      C2475   1.392       .  A
C2474      H2483   1.084       .  S
C2475      C2476   1.396       .  A
C2475      H2484   1.084       .  S
C2476      C2482   1.405       .  A
C2476      C2477   1.419       .  A
C2477      C2479   1.398       .  A
C2477      C2478   1.407       .  A
C2478      H2485   1.084       .  S
C2479      C2480   1.395       .  A
C2479      H2486   1.083       .  S
C2480      C2481   1.408       .  A
C2480      H2487   1.083       .  S
C2481      C2482   1.400       .  A
C2482      H2488   1.084       .  S
C2489      C2490   1.403       .  A
C2489      C2494   1.401   1_554  A
C2490      C2491   1.397       .  A
C2490      H2499   1.083       .  S
C2491      C2492   1.403   1_554  A
C2492      C2493   1.414       .  A
C2493      C2495   1.400       .  A
C2493      C2494   1.397       .  A
C2494      H2501   1.085       .  S
C2495      C2496   1.393       .  A
C2495      H2502   1.084       .  S
C2496      H2503   1.083       .  S
C2497      C2498   1.406       .  A
C2498      H2504   1.084       .  S
C2505      C2506   1.404       .  A
C2505      C2510   1.406       .  A
C2506      C2507   1.398       .  A
C2506      H2515   1.083       .  S
C2507      C2508   1.403       .  A
C2507      H2516   1.084       .  S
C2508      C2514   1.401       .  A
C2508      C2509   1.413       .  A
C2509      C2511   1.403   1_554  A
C2509      C2510   1.399       .  A
C2510      H2517   1.084       .  S
C2511      C2512   1.396       .  A
C2511      H2518   1.084       .  S
C2512      C2513   1.401       .  A
C2512      H2519   1.083       .  S
C2513      C2514   1.404   1_556  A
C2514      H2520   1.085       .  S
Fe2521     O2537   2.050       .  S
Fe2521     O2527   2.102   1_556  S
Fe2521     O2534   2.102       .  S
Fe2521     O2526   2.039       .  S
Fe2521     O2532   1.959       .  S
Fe2522     O2525   2.036       .  S
Fe2522     O2529   2.055       .  S
Fe2522     O2533   2.031       .  S
Fe2522     O2538   2.086       .  S
Fe2522     O2532   1.953       .  S
Fe2523     O2541   2.085       .  S
Fe2523     O2528   2.075       .  S
Fe2523     O2535   2.082       .  S
Fe2523     O2524   2.070       .  S
Fe2523     O2532   1.962       .  S
O2524      C2531   1.265       .  A
O2526      C2531   1.261       .  A
O2527      C2530   1.282       .  A
O2528      C2540   1.274       .  A
O2529      C2542   1.265       .  A
C2530      O2535   1.280   1_554  A
C2530      C3265   1.491       .  S
C2531      C3353   1.464       .  S
O2533      C2536   1.266       .  A
O2534      C2536   1.279       .  A
C2536      C3321   1.474       .  S
O2537      C2542   1.264       .  A
O2538      C2540   1.276       .  A
C2539      C3305   1.469       .  S
C2540      C3281   1.480       .  S
C2542      C3337   1.473       .  S
Fe2543     O2559   2.034       .  S
Fe2543     O2549   2.104       .  S
Fe2543     O2556   2.106       .  S
Fe2543     O2548   2.039       .  S
Fe2543     O2554   1.962       .  S
Fe2544     O2547   2.031   1_565  S
Fe2544     O2551   2.071       .  S
Fe2544     O2555   2.025       .  S
Fe2544     O2560   2.087       .  S
Fe2544     O2554   1.956       .  S
Fe2545     O2563   2.089       .  S
Fe2545     O2550   2.063       .  S
Fe2545     O2557   2.067       .  S
Fe2545     O2546   2.062       .  S
Fe2545     O2554   1.965       .  S
O2546      C2553   1.264       .  A
O2547      C2561   1.260       .  A
O2548      C2553   1.259       .  A
O2549      C2552   1.283       .  A
O2550      C2562   1.271       .  A
O2551      C2564   1.266       .  A
C2552      O2557   1.278       .  A
C2552      C3209   1.478       .  S
C2553      C3241   1.473       .  S
O2555      C2558   1.266       .  A
O2556      C2558   1.280       .  A
C2558      C3313   1.475       .  S
O2559      C2564   1.260       .  A
O2560      C2562   1.275       .  A
C2561      O2563   1.270   1_545  A
C2562      C3249   1.483       .  S
C2564      C3225   1.476   1_565  S
Fe2565     O2581   2.066       .  S
Fe2565     O2571   2.059       .  S
Fe2565     O2578   2.059       .  S
Fe2565     O2570   2.049       .  S
Fe2565     O2576   1.952       .  S
Fe2566     O2569   2.044       .  S
Fe2566     O2573   2.070       .  S
Fe2566     O2577   2.049       .  S
Fe2566     O2582   2.073       .  S
Fe2566     O2576   1.948       .  S
Fe2567     O2585   2.052       .  S
Fe2567     O2572   2.088       .  S
Fe2567     O2579   2.076       .  S
Fe2567     O2568   2.066       .  S
Fe2567     O2576   1.950       .  S
O2568      C2575   1.268       .  A
O2569      C2583   1.265       .  A
O2570      C2575   1.264       .  A
O2571      C2574   1.273       .  A
O2572      C2584   1.275       .  A
O2573      C2586   1.271       .  A
C2574      O2579   1.275       .  A
C2574      C3113   1.470       .  S
C2575      C3193   1.477       .  S
O2577      C2580   1.266       .  A
O2578      C2580   1.270       .  A
C2580      C3153   1.468       .  S
O2581      C2586   1.268       .  A
O2582      C2584   1.273       .  A
C2583      O2585   1.265       .  A
C2583      C3145   1.458       .  S
C2584      C3129   1.483       .  S
C2586      C3169   1.479       .  S
Fe2587     O2603   2.047       .  S
Fe2587     O2593   2.080       .  S
Fe2587     O2600   2.075       .  S
Fe2587     O2592   2.047       .  S
Fe2587     O2598   1.984       .  S
Fe2588     O2591   2.017       .  S
Fe2588     O2595   2.082       .  S
Fe2588     O2599   2.024       .  S
Fe2588     O2604   2.090       .  S
Fe2588     O2598   1.973       .  S
Fe2589     O2607   2.064       .  S
Fe2589     O2594   2.080       .  S
Fe2589     O2601   2.067       .  S
Fe2589     O2590   2.059       .  S
Fe2589     O2598   1.972       .  S
O2590      C2597   1.265       .  A
O2592      C2597   1.263       .  A
O2593      C2596   1.274       .  A
O2594      C2606   1.273       .  A
O2595      C2608   1.270       .  A
C2596      O2601   1.273       .  A
C2596      C3041   1.483       .  S
C2597      C3073   1.476       .  S
O2599      C2602   1.264       .  A
O2600      C2602   1.272       .  A
C2602      C3161   1.468       .  S
O2603      C2608   1.264       .  A
O2604      C2606   1.275       .  A
C2605      C3137   1.452       .  S
C2606      C3089   1.488       .  S
C2608      C3057   1.479       .  S
Fe2609     O2625   2.046       .  S
Fe2609     O2615   2.070       .  S
Fe2609     O2622   2.066       .  S
Fe2609     O2614   2.052       .  S
Fe2609     O2620   1.977       .  S
Fe2610     O2613   2.041       .  S
Fe2610     O2617   2.061       .  S
Fe2610     O2621   2.050       .  S
Fe2610     O2626   2.059       .  S
Fe2610     O2620   1.969       .  S
Fe2611     O2629   2.070       .  S
Fe2611     O2616   2.098       .  S
Fe2611     O2623   2.096       .  S
Fe2611     O2612   2.068       .  S
Fe2611     O2620   1.975       .  S
O2612      C2619   1.267       .  A
O2613      C2627   1.266       .  A
O2614      C2619   1.262       .  A
O2615      C2618   1.274       .  A
O2616      C2628   1.275       .  A
O2617      C2630   1.264       .  A
C2618      O2623   1.279       .  A
C2618      C3121   1.485       .  S
C2619      C3065   1.484       .  S
O2621      C2624   1.270       .  A
O2622      C2624   1.274       .  A
C2624      C3025   1.474       .  S
O2625      C2630   1.262       .  A
O2626      C2628   1.270       .  A
C2627      O2629   1.271       .  A
C2627      C3017   1.478       .  S
C2628      C3273   1.490       .  S
C2630      C3081   1.475       .  S
Fe2631     O2647   2.040       .  S
Fe2631     O2637   2.100   1_554  S
Fe2631     O2644   2.094       .  S
Fe2631     O2636   2.036       .  S
Fe2631     O2642   1.960       .  S
Fe2632     O2635   2.037       .  S
Fe2632     O2639   2.074       .  S
Fe2632     O2643   2.023       .  S
Fe2632     O2648   2.102       .  S
Fe2632     O2642   1.952       .  S
Fe2633     O2651   2.085       .  S
Fe2633     O2638   2.051       .  S
Fe2633     O2645   2.056       .  S
Fe2633     O2634   2.066       .  S
Fe2633     O2642   1.958       .  S
O2634      C2641   1.265       .  A
O2635      C2649   1.260       .  A
O2636      C2641   1.261       .  A
O2637      C2640   1.280       .  A
O2638      C2650   1.267       .  A
O2639      C2652   1.268       .  A
C2640      O2645   1.275   1_556  A
C2640      C3257   1.483       .  S
C2641      C3329   1.465       .  S
O2643      C2646   1.266       .  A
O2644      C2646   1.278       .  A
C2646      C3033   1.476       .  S
O2647      C2652   1.264       .  A
O2648      C2650   1.276       .  A
C2649      O2651   1.270       .  A
C2649      C3009   1.461       .  S
C2650      C3049   1.477       .  S
C2652      C3345   1.475       .  S
Fe2653     O2669   2.063       .  S
Fe2653     O2659   2.072       .  S
Fe2653     O2666   2.073       .  S
Fe2653     O2658   2.057       .  S
Fe2653     O2664   1.961       .  S
Fe2654     O2657   2.036       .  S
Fe2654     O2661   2.064       .  S
Fe2654     O2665   2.040       .  S
Fe2654     O2670   2.064       .  S
Fe2654     O2664   1.954       .  S
Fe2655     O2673   2.067       .  S
Fe2655     O2660   2.088       .  S
Fe2655     O2667   2.075       .  S
Fe2655     O2656   2.065       .  S
Fe2655     O2664   1.960       .  S
O2656      C2663   1.270       .  A
O2657      C2671   1.263       .  A
O2658      C2663   1.268       .  A
O2659      C2662   1.271       .  A
O2660      C2672   1.275       .  A
O2661      C2674   1.271       .  A
C2662      O2667   1.272       .  A
C2662      C3289   1.483       .  S
C2663      C3217   1.475       .  S
O2665      C2668   1.262       .  A
O2666      C2668   1.269       .  A
C2668      C3001   1.475       .  S
O2669      C2674   1.272       .  A
O2670      C2672   1.271       .  A
C2671      O2673   1.267       .  A
C2671      C2985   1.468       .  S
C2672      C2969   1.478       .  S
C2674      C3233   1.473       .  S
Fe2675     O2691   2.060       .  S
Fe2675     O2681   2.080       .  S
Fe2675     O2688   2.074       .  S
Fe2675     O2680   2.051       .  S
Fe2675     O2686   1.952       .  S
Fe2676     O2679   2.056       .  S
Fe2676     O2683   2.059       .  S
Fe2676     O2687   2.055       .  S
Fe2676     O2692   2.067       .  S
Fe2676     O2686   1.949       .  S
Fe2677     O2695   2.047       .  S
Fe2677     O2682   2.095       .  S
Fe2677     O2689   2.087       .  S
Fe2677     O2678   2.054       .  S
Fe2677     O2686   1.938       .  S
O2678      C2685   1.266       .  A
O2679      C2693   1.264       .  A
O2680      C2685   1.265       .  A
O2681      C2684   1.276       .  A
O2682      C2694   1.279       .  A
O2683      C2696   1.270       .  A
C2684      O2689   1.277       .  A
C2684      C2921   1.489       .  S
C2685      C2953   1.472       .  S
O2687      C2690   1.266       .  A
O2688      C2690   1.271       .  A
C2690      C2993   1.475       .  S
O2691      C2696   1.270       .  A
O2692      C2694   1.274       .  A
C2693      O2695   1.264       .  A
C2693      C2977   1.463       .  S
C2694      C3201   1.486       .  S
C2696      C2929   1.465       .  S
Fe2697     O2713   2.040       .  S
Fe2697     O2703   2.098       .  S
Fe2697     O2710   2.093       .  S
Fe2697     O2702   2.034       .  S
Fe2697     O2708   1.954       .  S
Fe2698     O2701   2.031       .  S
Fe2698     O2705   2.076       .  S
Fe2698     O2709   2.030       .  S
Fe2698     O2714   2.092       .  S
Fe2698     O2708   1.948       .  S
Fe2699     O2717   2.093       .  S
Fe2699     O2704   2.046       .  S
Fe2699     O2711   2.047       .  S
Fe2699     O2700   2.069       .  S
Fe2699     O2708   1.958       .  S
O2700      C2707   1.266       .  A
O2701      C2715   1.260       .  A
O2702      C2707   1.260       .  A
O2703      C2706   1.281       .  A
O2704      C2716   1.268       .  A
O2705      C2718   1.269       .  A
C2706      O2711   1.275       .  A
C2706      C2833   1.481       .  S
C2707      C2897   1.466       .  S
O2709      C2712   1.266       .  A
O2710      C2712   1.278       .  A
C2712      C2873   1.473       .  S
O2713      C2718   1.263       .  A
O2714      C2716   1.276       .  A
C2715      O2717   1.271       .  A
C2715      C2857   1.477   1_655  S
C2716      C3105   1.475       .  S
C2718      C2881   1.473       .  S
Fe2719     O2735   2.033       .  S
Fe2719     O2725   2.111       .  S
Fe2719     O2732   2.100       .  S
Fe2719     O2724   2.032       .  S
Fe2719     O2730   1.963       .  S
Fe2720     O2723   2.033       .  S
Fe2720     O2727   2.073       .  S
Fe2720     O2731   2.029       .  S
Fe2720     O2736   2.102       .  S
Fe2720     O2730   1.957       .  S
Fe2721     O2739   2.088       .  S
Fe2721     O2726   2.072       .  S
Fe2721     O2733   2.077       .  S
Fe2721     O2722   2.081       .  S
Fe2721     O2730   1.964       .  S
O2722      C2729   1.267       .  A
O2723      C2737   1.259       .  A
O2724      C2729   1.258       .  A
O2725      C2728   1.283       .  A
O2726      C2738   1.273       .  A
O2727      C2740   1.266       .  A
C2728      O2733   1.280       .  A
C2728      C3097   1.496       .  S
C2729      C3177   1.480       .  S
O2731      C2734   1.268       .  A
O2732      C2734   1.281       .  A
C2734      C2865   1.473       .  S
O2735      C2740   1.259       .  A
O2736      C2738   1.278       .  A
C2737      O2739   1.269       .  A
C2737      C2849   1.464       .  S
C2738      C2825   1.490       .  S
C2740      C3185   1.476       .  S
Fe2741     O2757   2.029       .  S
Fe2741     O2747   2.086       .  S
Fe2741     O2754   2.083       .  S
Fe2741     O2746   2.033       .  S
Fe2741     O2752   1.950       .  S
Fe2742     O2745   2.035   1_565  S
Fe2742     O2749   2.064       .  S
Fe2742     O2753   2.041       .  S
Fe2742     O2758   2.072       .  S
Fe2742     O2752   1.951       .  S
Fe2743     O2761   2.076       .  S
Fe2743     O2748   2.068       .  S
Fe2743     O2755   2.067       .  S
Fe2743     O2744   2.059       .  S
Fe2743     O2752   1.965       .  S
O2744      C2751   1.264       .  A
O2745      C2759   1.261       .  A
O2746      C2751   1.260       .  A
O2747      C2750   1.278       .  A
O2748      C2760   1.273       .  A
O2749      C2762   1.266       .  A
C2750      O2755   1.277       .  A
C2750      C2961   1.475       .  S
C2751      C2937   1.465       .  S
O2753      C2756   1.268       .  A
O2754      C2756   1.276       .  A
C2756      C2801   1.478       .  S
O2757      C2762   1.261       .  A
O2758      C2760   1.274       .  A
C2759      O2761   1.268   1_545  A
C2760      C2841   1.472       .  S
C2762      C2945   1.469   1_565  S
Fe2763     O2779   2.029       .  S
Fe2763     O2769   2.103       .  S
Fe2763     O2776   2.094       .  S
Fe2763     O2768   2.032       .  S
Fe2763     O2774   1.954       .  S
Fe2764     O2767   2.031       .  S
Fe2764     O2771   2.072       .  S
Fe2764     O2775   2.029       .  S
Fe2764     O2780   2.106       .  S
Fe2764     O2774   1.952       .  S
Fe2765     O2783   2.087       .  S
Fe2765     O2770   2.066       .  S
Fe2765     O2777   2.078       .  S
Fe2765     O2766   2.078       .  S
Fe2765     O2774   1.959       .  S
O2766      C2773   1.267       .  A
O2767      C2781   1.257       .  A
O2768      C2773   1.259       .  A
O2769      C2772   1.282       .  A
O2770      C2782   1.274       .  A
O2771      C2784   1.267       .  A
C2772      O2777   1.279       .  A
C2772      C2817   1.495       .  S
C2773      C2889   1.471       .  S
O2775      C2778   1.266       .  A
O2776      C2778   1.278       .  A
C2778      C2809   1.478       .  S
O2779      C2784   1.261       .  A
O2780      C2782   1.279       .  A
C2781      O2783   1.268       .  A
C2781      C2793   1.458       .  S
C2782      C2913   1.487       .  S
C2784      C2905   1.466       .  S
C2785      C2786   1.405       .  A
C2785      C2790   1.406       .  A
C2786      C2787   1.396       .  A
C2787      C2788   1.401       .  A
C2787      H2796   1.084       .  S
C2788      C2794   1.399       .  A
C2788      C2789   1.414       .  A
C2789      C2791   1.402       .  A
C2789      C2790   1.397       .  A
C2790      H2797   1.085       .  S
C2791      C2792   1.395       .  A
C2791      H2798   1.084       .  S
C2792      C2793   1.402       .  A
C2792      H2799   1.083       .  S
C2793      C2794   1.401       .  A
C2794      H2800   1.085       .  S
C2801      C2802   1.409       .  A
C2801      C2806   1.402       .  A
C2802      C2803   1.395       .  A
C2802      H2811   1.083       .  S
C2803      C2804   1.399       .  A
C2803      H2812   1.084       .  S
C2804      C2810   1.404       .  A
C2804      C2805   1.415       .  A
C2805      C2807   1.396       .  A
C2805      C2806   1.400       .  A
C2806      H2813   1.084       .  S
C2807      C2808   1.391       .  A
C2807      H2814   1.084       .  S
C2808      C2809   1.410       .  A
C2808      H2815   1.083       .  S
C2809      C2810   1.403       .  A
C2810      H2816   1.084       .  S
C2817      C2818   1.408       .  A
C2817      C2822   1.410       .  A
C2818      C2819   1.403       .  A
C2818      H2827   1.083       .  S
C2819      C2820   1.404       .  A
C2819      H2828   1.084       .  S
C2820      C2826   1.413       .  A
C2820      C2821   1.414       .  A
C2821      C2823   1.402       .  A
C2821      C2822   1.410       .  A
C2822      H2829   1.084       .  S
C2823      C2824   1.399       .  A
C2823      H2830   1.084       .  S
C2824      C2825   1.407       .  A
C2824      H2831   1.083       .  S
C2825      C2826   1.410       .  A
C2826      H2832   1.084       .  S
C2833      C2834   1.407       .  A
C2833      C2838   1.404       .  A
C2834      C2835   1.402       .  A
C2834      H2843   1.083       .  S
C2835      C2836   1.405       .  A
C2835      H2844   1.083       .  S
C2836      C2842   1.408   1_655  A
C2836      C2837   1.414       .  A
C2837      C2839   1.397   1_655  A
C2837      C2838   1.396       .  A
C2838      H2845   1.084       .  S
C2839      H2846   1.084       .  S
C2840      C2841   1.405       .  A
C2840      H2847   1.084       .  S
C2842      H2848   1.084   1_455  S
C2849      C2850   1.402       .  A
C2850      C2851   1.393       .  A
C2850      H2859   1.083       .  S
C2851      H2860   1.084       .  S
C2852      C2858   1.396       .  A
C2852      C2853   1.412       .  A
C2853      C2854   1.402       .  A
C2854      H2861   1.085   1_565  S
C2855      C2856   1.400       .  A
C2855      H2862   1.084   1_565  S
C2856      C2857   1.405       .  A
C2856      H2863   1.083   1_455  S
C2858      H2864   1.084       .  S
C2865      C2866   1.408       .  A
C2865      C2870   1.401       .  A
C2866      C2867   1.392       .  A
C2866      H2875   1.083       .  S
C2867      C2868   1.397       .  A
C2867      H2876   1.084       .  S
C2868      C2874   1.402       .  A
C2868      C2869   1.417       .  A
C2869      C2871   1.398       .  A
C2869      C2870   1.404       .  A
C2870      H2877   1.084       .  S
C2871      C2872   1.394       .  A
C2871      H2878   1.084       .  S
C2872      C2873   1.409       .  A
C2872      H2879   1.083       .  S
C2873      C2874   1.400       .  A
C2874      H2880   1.084       .  S
C2881      C2882   1.403   1_655  A
C2881      C2886   1.406       .  A
C2882      H2891   1.083       .  S
C2883      H2892   1.084       .  S
C2884      C2885   1.413   1_455  A
C2885      C2887   1.403       .  A
C2885      C2886   1.400       .  A
C2886      H2893   1.085       .  S
C2887      C2888   1.397       .  A
C2887      H2894   1.084       .  S
C2888      H2895   1.083       .  S
C2889      C2890   1.406       .  A
C2890      H2896   1.085       .  S
C2897      C2898   1.402       .  A
C2897      C2902   1.404       .  A
C2898      C2899   1.396       .  A
C2898      H2907   1.083       .  S
C2899      C2900   1.403       .  A
C2899      H2908   1.084       .  S
C2900      C2906   1.397       .  A
C2900      C2901   1.413       .  A
C2901      C2903   1.403       .  A
C2901      C2902   1.397       .  A
C2902      H2909   1.085       .  S
C2903      C2904   1.396       .  A
C2903      H2910   1.084       .  S
C2904      C2905   1.402       .  A
C2904      H2911   1.083       .  S
C2905      C2906   1.405       .  A
C2906      H2912   1.085       .  S
C2913      C2918   1.407       .  A
C2914      C2915   1.402   1_455  A
C2914      H2923   1.083       .  S
C2915      C2916   1.404       .  A
C2915      H2924   1.084       .  S
C2916      C2922   1.413       .  A
C2916      C2917   1.415   1_655  A
C2917      C2919   1.402       .  A
C2918      H2925   1.084       .  S
C2919      C2920   1.399   1_455  A
C2920      C2921   1.407       .  A
C2920      H2927   1.083       .  S
C2921      C2922   1.409       .  A
C2922      H2928   1.084       .  S
C2929      C2930   1.402   1_655  A
C2929      C2934   1.404       .  A
C2930      H2939   1.083       .  S
C2931      H2940   1.084       .  S
C2932      C2933   1.413   1_455  A
C2933      C2935   1.401       .  A
C2933      C2934   1.394       .  A
C2934      H2941   1.085       .  S
C2935      C2936   1.393       .  A
C2935      H2942   1.084       .  S
C2936      H2943   1.083       .  S
C2937      C2938   1.404       .  A
C2938      H2944   1.085       .  S
C2945      C2946   1.403       .  A
C2946      C2947   1.396       .  A
C2946      H2955   1.083       .  S
C2947      H2956   1.084       .  S
C2948      C2954   1.397       .  A
C2948      C2949   1.412       .  A
C2949      C2951   1.401       .  A
C2949      C2950   1.395       .  A
C2950      H2957   1.084       .  S
C2951      C2952   1.394       .  A
C2951      H2958   1.084       .  S
C2952      C2953   1.404       .  A
C2952      H2959   1.083       .  S
C2953      C2954   1.407       .  A
C2954      H2960   1.084       .  S
C2961      C2962   1.404   1_565  A
C2961      C2966   1.404       .  A
C2962      H2971   1.084       .  S
C2963      C2964   1.402       .  A
C2963      H2972   1.084       .  S
C2964      C2970   1.406       .  A
C2964      C2965   1.415       .  A
C2965      C2967   1.402       .  A
C2966      H2973   1.084       .  S
C2967      C2968   1.398       .  A
C2967      H2974   1.083       .  S
C2968      C2969   1.405       .  A
C2968      H2975   1.083       .  S
C2969      C2970   1.406       .  A
C2970      H2976   1.084       .  S
C2977      C2982   1.407   1_655  A
C2978      C2979   1.390       .  A
C2978      H2987   1.084       .  S
C2979      C2980   1.401       .  A
C2979      H2988   1.083       .  S
C2980      C2986   1.390       .  A
C2980      C2981   1.411       .  A
C2981      C2983   1.406       .  A
C2982      H2989   1.084   1_455  S
C2983      C2984   1.400       .  A
C2983      H2990   1.083       .  S
C2984      C2985   1.402       .  A
C2984      H2991   1.083       .  S
C2985      C2986   1.404       .  A
C2986      H2992   1.084       .  S
C2993      C2994   1.403       .  A
C2993      C2998   1.408       .  A
C2994      C2995   1.399       .  A
C2994      H3003   1.083       .  S
C2995      C2996   1.406       .  A
C2995      H3004   1.084       .  S
C2996      C3002   1.399       .  A
C2996      C2997   1.410       .  A
C2997      C2999   1.404       .  A
C2997      C2998   1.396       .  A
C2998      H3005   1.084       .  S
C2999      C3000   1.396       .  A
C2999      H3006   1.084       .  S
C3000      C3001   1.402       .  A
C3000      H3007   1.083       .  S
C3001      C3002   1.411       .  A
C3002      H3008   1.084       .  S
C3009      C3010   1.401       .  A
C3009      C3014   1.401       .  A
C3010      C3011   1.396       .  A
C3010      H3019   1.083       .  S
C3011      C3012   1.403       .  A
C3011      H3020   1.084       .  S
C3012      C3018   1.399       .  A
C3012      C3013   1.413       .  A
C3013      C3015   1.401       .  A
C3013      C3014   1.400       .  A
C3014      H3021   1.085       .  S
C3015      H3022   1.084       .  S
C3016      C3017   1.406       .  A
C3016      H3023   1.083       .  S
C3018      H3024   1.084       .  S
C3025      C3026   1.404       .  A
C3025      C3030   1.410       .  A
C3026      C3027   1.394       .  A
C3026      H3035   1.083       .  S
C3027      C3028   1.403       .  A
C3027      H3036   1.084       .  S
C3028      C3034   1.394       .  A
C3028      C3029   1.409       .  A
C3029      C3031   1.404       .  A
C3029      C3030   1.397       .  A
C3030      H3037   1.084       .  S
C3031      C3032   1.398       .  A
C3031      H3038   1.084       .  S
C3032      C3033   1.404       .  A
C3032      H3039   1.083       .  S
C3033      C3034   1.409       .  A
C3034      H3040   1.084       .  S
C3041      C3046   1.408       .  A
C3042      C3043   1.394       .  A
C3042      H3051   1.083       .  S
C3043      C3044   1.399       .  A
C3043      H3052   1.084       .  S
C3044      C3050   1.404       .  A
C3044      C3045   1.416       .  A
C3045      C3047   1.404       .  A
C3046      H3053   1.084       .  S
C3047      C3048   1.401       .  A
C3048      C3049   1.406       .  A
C3048      H3055   1.083       .  S
C3049      C3050   1.402       .  A
C3050      H3056   1.085       .  S
C3057      C3062   1.407       .  A
C3058      C3059   1.402       .  A
C3058      H3067   1.083       .  S
C3059      C3060   1.406       .  A
C3059      H3068   1.084       .  S
C3060      C3066   1.405       .  A
C3060      C3061   1.412       .  A
C3061      C3063   1.402       .  A
C3062      H3069   1.085       .  S
C3063      C3064   1.396       .  A
C3064      C3065   1.405       .  A
C3064      H3071   1.083       .  S
C3065      C3066   1.412       .  A
C3066      H3072   1.084       .  S
C3073      C3078   1.408       .  A
C3074      C3075   1.395       .  A
C3074      H3083   1.083       .  S
C3075      C3076   1.401       .  A
C3075      H3084   1.084       .  S
C3076      C3082   1.398       .  A
C3077      C3079   1.403       .  A
C3077      C3078   1.401       .  A
C3078      H3085   1.084       .  S
C3079      H3086   1.084       .  S
C3080      C3081   1.404       .  A
C3081      C3082   1.406       .  A
C3082      H3088   1.085       .  S
C3089      C3090   1.406       .  A
C3089      C3094   1.406       .  A
C3090      H3099   1.083       .  S
C3091      C3092   1.406       .  A
C3091      H3100   1.084       .  S
C3092      C3098   1.417       .  A
C3092      C3093   1.415       .  A
C3093      C3095   1.400       .  A
C3094      H3101   1.085       .  S
C3095      C3096   1.398       .  A
C3095      H3102   1.084       .  S
C3096      C3097   1.408       .  A
C3096      H3103   1.083       .  S
C3097      C3098   1.413       .  A
C3098      H3104   1.084       .  S
C3105      C3106   1.406       .  A
C3105      C3110   1.403       .  A
C3106      C3107   1.397       .  A
C3106      H3115   1.083       .  S
C3107      C3108   1.401       .  A
C3107      H3116   1.084       .  S
C3108      C3114   1.404       .  A
C3108      C3109   1.415       .  A
C3109      C3111   1.400       .  A
C3109      C3110   1.401       .  A
C3110      H3117   1.085       .  S
C3111      C3112   1.394       .  A
C3111      H3118   1.084       .  S
C3112      C3113   1.404       .  A
C3112      H3119   1.083       .  S
C3113      C3114   1.403       .  A
C3114      H3120   1.085       .  S
C3121      C3122   1.405       .  A
C3121      C3126   1.409       .  A
C3122      C3123   1.400       .  A
C3122      H3131   1.083       .  S
C3123      C3124   1.403       .  A
C3123      H3132   1.083       .  S
C3124      C3130   1.408       .  A
C3124      C3125   1.414       .  A
C3125      C3126   1.409       .  A
C3126      H3133   1.084       .  S
C3127      C3128   1.401       .  A
C3127      H3134   1.083       .  S
C3128      C3129   1.405       .  A
C3128      H3135   1.083       .  S
C3130      H3136   1.084       .  S
C3137      C3138   1.398       .  A
C3137      C3142   1.401       .  A
C3138      C3139   1.395       .  A
C3138      H3147   1.083       .  S
C3139      C3140   1.404       .  A
C3139      H3148   1.084       .  S
C3140      C3146   1.392       .  A
C3140      C3141   1.413       .  A
C3141      C3143   1.402       .  A
C3141      C3142   1.391       .  A
C3142      H3149   1.086       .  S
C3143      C3144   1.394       .  A
C3143      H3150   1.084       .  S
C3144      C3145   1.401       .  A
C3144      H3151   1.083       .  S
C3145      C3146   1.403       .  A
C3146      H3152   1.085       .  S
C3153      C3154   1.402       .  A
C3153      C3158   1.409       .  A
C3154      C3155   1.393       .  A
C3154      H3163   1.083       .  S
C3155      C3156   1.402       .  A
C3155      H3164   1.084       .  S
C3156      C3162   1.390       .  A
C3156      C3157   1.409       .  A
C3157      C3159   1.405       .  A
C3157      C3158   1.394       .  A
C3158      H3165   1.084       .  S
C3159      C3160   1.398       .  A
C3159      H3166   1.084       .  S
C3160      C3161   1.401       .  A
C3160      H3167   1.083       .  S
C3161      C3162   1.407       .  A
C3162      H3168   1.085       .  S
C3169      C3170   1.404       .  A
C3169      C3174   1.410       .  A
C3170      C3171   1.398       .  A
C3170      H3179   1.083       .  S
C3171      C3172   1.404       .  A
C3171      H3180   1.084       .  S
C3172      C3178   1.401       .  A
C3172      C3173   1.411       .  A
C3173      C3175   1.404       .  A
C3173      C3174   1.402       .  A
C3174      H3181   1.084       .  S
C3175      C3176   1.399       .  A
C3175      H3182   1.084       .  S
C3176      C3177   1.404       .  A
C3176      H3183   1.083       .  S
C3177      C3178   1.409       .  A
C3178      H3184   1.084       .  S
C3185      C3186   1.403       .  A
C3185      C3190   1.409       .  A
C3186      C3187   1.397       .  A
C3186      H3195   1.083       .  S
C3187      C3188   1.403       .  A
C3187      H3196   1.084       .  S
C3188      C3189   1.411       .  A
C3189      C3191   1.404       .  A
C3189      C3190   1.399       .  A
C3190      H3197   1.084       .  S
C3191      H3198   1.084       .  S
C3192      C3193   1.404       .  A
C3192      H3199   1.083   1_565  S
C3193      C3194   1.409       .  A
C3194      H3200   1.084       .  S
C3201      C3202   1.408       .  A
C3201      C3206   1.406       .  A
C3202      C3203   1.402       .  A
C3202      H3211   1.083       .  S
C3203      C3204   1.404       .  A
C3203      H3212   1.084       .  S
C3204      C3205   1.415       .  A
C3205      C3207   1.401       .  A
C3205      C3206   1.405       .  A
C3206      H3213   1.085       .  S
C3207      H3214   1.085       .  S
C3208      C3209   1.403       .  A
C3208      H3215   1.083       .  S
C3209      C3210   1.407   1_565  A
C3210      H3216   1.085       .  S
C3217      C3218   1.404       .  A
C3217      C3222   1.407       .  A
C3218      H3227   1.083       .  S
C3219      H3228   1.084   1_545  S
C3220      C3221   1.412       .  A
C3221      C3223   1.404       .  A
C3221      C3222   1.401       .  A
C3222      H3229   1.084       .  S
C3223      C3224   1.399       .  A
C3223      H3230   1.084       .  S
C3224      H3231   1.083       .  S
C3225      C3226   1.407   1_545  A
C3226      H3232   1.084       .  S
C3233      C3234   1.404       .  A
C3233      C3238   1.404       .  A
C3234      C3235   1.399       .  A
C3234      H3243   1.083       .  S
C3235      C3236   1.405       .  A
C3235      H3244   1.084       .  S
C3236      C3242   1.401       .  A
C3236      C3237   1.412       .  A
C3237      C3239   1.401       .  A
C3237      C3238   1.396       .  A
C3238      H3245   1.085       .  S
C3239      C3240   1.393       .  A
C3239      H3246   1.084       .  S
C3240      C3241   1.403       .  A
C3240      H3247   1.083       .  S
C3241      C3242   1.408       .  A
C3242      H3248   1.084       .  S
C3249      C3250   1.407       .  A
C3249      C3254   1.405       .  A
C3250      C3251   1.402       .  A
C3250      H3259   1.083       .  S
C3251      C3252   1.404       .  A
C3251      H3260   1.084       .  S
C3252      C3258   1.410       .  A
C3252      C3253   1.414       .  A
C3253      C3255   1.399       .  A
C3253      C3254   1.402       .  A
C3254      H3261   1.084       .  S
C3255      C3256   1.394       .  A
C3255      H3262   1.084       .  S
C3256      C3257   1.406       .  A
C3256      H3263   1.083       .  S
C3257      C3258   1.409       .  A
C3258      H3264   1.084       .  S
C3265      C3266   1.408       .  A
C3266      C3267   1.405       .  A
C3266      H3275   1.083       .  S
C3267      H3276   1.083       .  S
C3268      C3274   1.417       .  A
C3268      C3269   1.416       .  A
C3269      C3271   1.399       .  A
C3269      C3270   1.408       .  A
C3270      H3277   1.084       .  S
C3271      C3272   1.395       .  A
C3271      H3278   1.084       .  S
C3272      C3273   1.408       .  A
C3272      H3279   1.083       .  S
C3273      C3274   1.410       .  A
C3274      H3280   1.084       .  S
C3281      C3282   1.405       .  A
C3281      C3286   1.409       .  A
C3282      C3283   1.394       .  A
C3282      H3291   1.084       .  S
C3283      C3284   1.400       .  A
C3283      H3292   1.084       .  S
C3284      C3290   1.403       .  A
C3284      C3285   1.415       .  A
C3285      C3287   1.405       .  A
C3285      C3286   1.412       .  A
C3286      H3293   1.084       .  S
C3287      C3288   1.404       .  A
C3287      H3294   1.083       .  S
C3288      C3289   1.406       .  A
C3288      H3295   1.083       .  S
C3289      C3290   1.405       .  A
C3290      H3296   1.085       .  S
C3297      C3302   1.407       .  A
C3298      H3307   1.083       .  S
C3299      C3300   1.402       .  A
C3299      H3308   1.084       .  S
C3300      C3306   1.401       .  A
C3300      C3301   1.413       .  A
C3301      C3303   1.402       .  A
C3301      C3302   1.398       .  A
C3302      H3309   1.084       .  S
C3303      C3304   1.395       .  A
C3303      H3310   1.084       .  S
C3304      C3305   1.404       .  A
C3304      H3311   1.083       .  S
C3305      C3306   1.405       .  A
C3306      H3312   1.085       .  S
C3313      C3314   1.409       .  A
C3313      C3318   1.401       .  A
C3314      C3315   1.392       .  A
C3314      H3323   1.084       .  S
C3315      C3316   1.396       .  A
C3315      H3324   1.084       .  S
C3316      C3322   1.405       .  A
C3316      C3317   1.419       .  A
C3317      C3319   1.398       .  A
C3317      C3318   1.407       .  A
C3318      H3325   1.084       .  S
C3319      C3320   1.395       .  A
C3319      H3326   1.083       .  S
C3320      C3321   1.408       .  A
C3320      H3327   1.083       .  S
C3321      C3322   1.400       .  A
C3322      H3328   1.084       .  S
C3329      C3330   1.403       .  A
C3329      C3334   1.401   1_554  A
C3330      C3331   1.397       .  A
C3330      H3339   1.083       .  S
C3331      C3332   1.403   1_554  A
C3332      C3333   1.414       .  A
C3333      C3335   1.400       .  A
C3333      C3334   1.397       .  A
C3334      H3341   1.085       .  S
C3335      C3336   1.393       .  A
C3335      H3342   1.084       .  S
C3336      H3343   1.083       .  S
C3337      C3338   1.406       .  A
C3338      H3344   1.084       .  S
C3345      C3346   1.404       .  A
C3345      C3350   1.406       .  A
C3346      C3347   1.398       .  A
C3346      H3355   1.083       .  S
C3347      C3348   1.403       .  A
C3347      H3356   1.084       .  S
C3348      C3354   1.401       .  A
C3348      C3349   1.413       .  A
C3349      C3351   1.403   1_554  A
C3349      C3350   1.399       .  A
C3350      H3357   1.084       .  S
C3351      C3352   1.396       .  A
C3351      H3358   1.084       .  S
C3352      C3353   1.401       .  A
C3352      H3359   1.083       .  S
C3353      C3354   1.404   1_556  A
C3354      H3360   1.085       .  S
