geometry optimzed in LAMMPS
_audit_creation_date              2020-12-01 
_audit_creation_method            'lammps2cif' 
_symmetry_space_group_name_H-M    'P1' 
_symmetry_Int_Tables_number       1 
_symmetry_cell_setting            triclinic 
loop_ 
_symmetry_equiv_pos_as_xyz 
  x,y,z 
_cell_length_a                    50.47614492 
_cell_length_b                    50.12120490705262 
_cell_length_c                    29.904487564088775 
_cell_angle_alpha                 89.88288616912295 
_cell_angle_beta                  90.3571817592324 
_cell_angle_gamma                 90.13148001129296 
loop_ 
_atom_site_label 
_atom_site_type_symbol 
_atom_site_fract_x 
_atom_site_fract_y 
_atom_site_fract_z 
_atom_site_charge 
Fe1        Fe  0.70762454  0.47643773  0.71361789     1.65800
Fe2        Fe  0.64416570  0.45580610  0.73539800     1.73200
Fe3        Fe  0.68428369  0.41805133  0.66949703     1.54400
O4          O  0.70612187  0.43796638  0.62157744    -0.81100
O5          O  0.64096803  0.41733964  0.75900971    -0.79400
O6          O  0.71561213  0.47853511  0.64643164    -0.83600
O7          O  0.73606819  0.44696761  0.72298761    -0.78500
O8          O  0.65091539  0.42532161  0.63198482    -0.80200
O9          O  0.66143224  0.46603554  0.79640312    -0.83000
C10         C  0.73702358  0.42171177  0.71908139     0.97800
C11         C  0.71606415  0.46101590  0.61611896     1.05200
O12         O  0.67867573  0.45010843  0.70627770    -1.12000
O13         O  0.64219693  0.49491075  0.71561903    -0.74400
O14         O  0.68327724  0.50945188  0.70496439    -0.77900
O15         O  0.71803372  0.40794464  0.70363535    -0.78600
C16         C  0.65846446  0.51331415  0.70615975     0.96700
O17         O  0.70315699  0.47742423  0.78165520    -0.76500
O18         O  0.62306964  0.44615635  0.67760963    -0.81700
C19         C  0.64827850  0.39488957  0.74429440     0.99300
C20         C  0.62845899  0.43536478  0.64021307     1.05200
O21         O  0.66353473  0.39258473  0.71109843    -0.77400
C22         C  0.68444634  0.47332573  0.80894171     1.03500
Fe23       Fe  0.77201641  0.48511108  0.21312360     1.65800
Fe24       Fe  0.79170921  0.42443398  0.17256086     1.73200
Fe25       Fe  0.83427059  0.46105427  0.23572414     1.54400
O26         O  0.83671239  0.50123369  0.22584383    -0.81100
O27         O  0.80722888  0.39840044  0.21929044    -0.79400
O28         O  0.79798265  0.51726599  0.20416021    -0.83600
O29         O  0.77754123  0.48577940  0.28178385    -0.78500
O30         O  0.85389597  0.45574182  0.17566735    -0.80200
O31         O  0.75513903  0.41813274  0.20028565    -0.83000
C32         C  0.79456048  0.47645653  0.30932944     0.97800
C33         C  0.82228844  0.52046868  0.21395964     1.05200
O34         O  0.79923584  0.45696396  0.20703517    -1.12000
O35         O  0.77481655  0.44563320  0.12110063    -0.74400
O36         O  0.76368472  0.48611605  0.14501281    -0.77900
O37         O  0.81652138  0.46643479  0.29717656    -0.78600
C38         C  0.76508430  0.46856006  0.11439512     0.96700
O39         O  0.74134874  0.45795159  0.22341603    -0.76500
O40         O  0.82751880  0.42704516  0.14028453    -0.81700
C41         C  0.82756135  0.39950708  0.24401517     0.99300
C42         C  0.84905498  0.44020621  0.14305461     1.05200
O43         O  0.83926870  0.42141814  0.25122816    -0.77400
C44         C  0.73773149  0.43315406  0.21706060     1.03500
Fe45       Fe  0.98217315  0.20364058  0.34244936     1.65800
Fe46       Fe  0.96023808  0.14090324  0.31558516     1.73200
Fe47       Fe  0.92394135  0.18013713  0.38522572     1.54400
O48         O  0.94378767  0.20096470  0.43447564    -0.81100
O49         O  0.92150858  0.13753276  0.29451961    -0.79400
O50         O  0.98354867  0.21167269  0.40972207    -0.83600
O51         O  0.95307458  0.23250954  0.33207367    -0.78500
O52         O  0.93145955  0.14556870  0.41984294    -0.80200
O53         O  0.96826200  0.15961741  0.25567484    -0.83000
C54         C  0.92802703  0.23393907  0.33648785     0.97800
C55         C  0.96641440  0.21141573  0.44026372     1.05200
O56         O  0.95540118  0.17492429  0.34762400    -1.12000
O57         O  0.99950314  0.13848812  0.33282273    -0.74400
O58         O  0.01428510  0.17834297  0.35350943    -0.77900
O59         O  0.91431111  0.21513594  0.35320678    -0.78600
C60         C  0.01760754  0.15346120  0.34823126     0.96700
O61         O  0.98429778  0.19956267  0.27414074    -0.76500
O62         O  0.95248271  0.11876595  0.37222892    -0.81700
C63         C  0.89944690  0.14439359  0.31071188     0.99300
C64         C  0.94199872  0.12339037  0.40995593     1.05200
O65         O  0.89795326  0.16002378  0.34369064    -0.77400
C66         C  0.97784613  0.18220045  0.24531763     1.03500
Fe67       Fe  0.98624097  0.26969866  0.84105511     1.65800
Fe68       Fe  0.92976596  0.29539839  0.88631437     1.73200
Fe69       Fe  0.96839319  0.33467957  0.81922237     1.54400
O70         O  0.00831406  0.33414263  0.83306792    -0.81100
O71         O  0.90473198  0.31604846  0.84440985    -0.79400
O72         O  0.02020334  0.29279761  0.85157742    -0.83600
O73         O  0.98759490  0.27541818  0.77322874    -0.78500
O74         O  0.96278919  0.35623617  0.87792874    -0.80200
O75         O  0.91836159  0.26070744  0.85450934    -0.83000
C76         C  0.98137880  0.29358087  0.74553076     0.97800
C77         C  0.02550754  0.31733375  0.84557523     1.05200
O78         O  0.96153250  0.29999032  0.84902078    -1.12000
O79         O  0.94933256  0.27404866  0.93503309    -0.74400
O80         O  0.98756240  0.25977396  0.90777442    -0.77900
O81         O  0.97395611  0.31665135  0.75764034    -0.78600
C82         C  0.97095616  0.26148685  0.93911206     0.96700
O83         O  0.95554609  0.24246826  0.82937090    -0.76500
O84         O  0.93794830  0.32978744  0.92119245    -0.81700
C85         C  0.90727854  0.33364665  0.81435802     0.99300
C86         C  0.95031175  0.35149981  0.91400770     1.05200
O87         O  0.92969137  0.34114585  0.80060146    -0.77400
C88         C  0.93053650  0.24196183  0.83505857     1.03500
Fe89       Fe  0.70427390  0.99563181  0.19408288     1.65800
Fe90       Fe  0.68122464  0.05486043  0.15299581     1.73200
Fe91       Fe  0.64201676  0.01663380  0.21958579     1.54400
O92         O  0.64139583  0.97619995  0.20683977    -0.81100
O93         O  0.66758979  0.08013631  0.20186392    -0.79400
O94         O  0.67942286  0.96459550  0.17528902    -0.83600
O95         O  0.69750838  0.98922112  0.26131066    -0.78500
O96         O  0.62039515  0.02170216  0.16151367    -0.80200
O97         O  0.71908707  0.06113120  0.17703521    -0.83000
C98         C  0.68209921  0.99880474  0.29058508     0.97800
C99         C  0.65561134  0.95966075  0.18577427     1.05200
O100        O  0.67588334  0.02244243  0.18881461    -1.12000
O101        O  0.69524029  0.03401217  0.09923200    -0.74400
O102        O  0.71534288  0.99848611  0.12806066    -0.77900
O103        O  0.66113367  0.01145274  0.28038272    -0.78600
C104        C  0.70946813  0.01343921  0.09526682     0.96700
O105        O  0.73201798  0.02415117  0.21256137    -0.76500
O106        O  0.64400304  0.05240108  0.12484145    -0.81700
C107        C  0.64767027  0.07848999  0.22732274     0.99300
C108        C  0.62321364  0.03850414  0.13008914     1.05200
O109        O  0.63636195  0.05641254  0.23527566    -0.77400
C110        C  0.73569489  0.04821404  0.20049961     1.03500
Fe111      Fe  0.76994269  0.99590067  0.69605218     1.65800
Fe112      Fe  0.83254974  0.01750070  0.72253711     1.73200
Fe113      Fe  0.79389892  0.05345759  0.65118950     1.54400
O114        O  0.76981957  0.03396020  0.60523842    -0.81100
O115        O  0.83662734  0.05675288  0.74227069    -0.79400
O116        O  0.76292062  0.99266930  0.62850039    -0.83600
O117        O  0.74161457  0.02610910  0.70157894    -0.78500
O118        O  0.82637138  0.04276133  0.61448208    -0.80200
O119        O  0.81382515  0.01046145  0.78256826    -0.83000
C120        C  0.74124466  0.05158439  0.69941844     0.97800
C121        C  0.76071816  0.01063723  0.59906889     1.05200
O122        O  0.79883649  0.02224351  0.69011464    -1.12000
O123        O  0.83460473  0.97772245  0.70816837    -0.74400
O124        O  0.79456116  0.96258978  0.69050071    -0.77900
O125        O  0.76114839  0.06502859  0.68655159    -0.78600
C126        C  0.81927107  0.95905514  0.69616902     0.96700
O127        O  0.77325776  0.99605620  0.76443163    -0.76500
O128        O  0.85373984  0.02381071  0.66448796    -0.81700
C129        C  0.83183307  0.07854935  0.72259303     0.99300
C130        C  0.84830062  0.03188372  0.62504156     1.05200
O131        O  0.81701705  0.07977495  0.68834971    -0.77400
C132        C  0.79077815  0.00252479  0.79303483     1.03500
Fe133      Fe  0.49525143  0.20361928  0.84575780     1.65800
Fe134      Fe  0.55176006  0.17356005  0.88094043     1.73200
Fe135      Fe  0.51275924  0.14246227  0.80442967     1.54400
O136        O  0.47434050  0.13954642  0.82551779    -0.81100
O137        O  0.57451743  0.15200611  0.83694342    -0.79400
O138        O  0.46156744  0.17958980  0.84976355    -0.83600
O139        O  0.49280041  0.20592791  0.77739391    -0.78500
O140        O  0.52312653  0.11530277  0.85418701    -0.80200
O141        O  0.56463549  0.20822867  0.85150284    -0.83000
C142        C  0.49614612  0.19034799  0.74477094     0.97800
C143        C  0.45712597  0.15509968  0.84159069     1.05200
O144        O  0.51977234  0.17321529  0.84362501    -1.12000
O145        O  0.53569117  0.19536888  0.93271317    -0.74400
O146        O  0.49456357  0.20551542  0.91429228    -0.77900
O147        O  0.50232290  0.16601736  0.75042256    -0.78600
C148        C  0.51342568  0.20522335  0.94229760     0.96700
O149        O  0.52666618  0.23090890  0.84257861    -0.76500
O150        O  0.54013042  0.13879411  0.91141647    -0.81700
C151        C  0.57237286  0.14199429  0.79823399     0.99300
C152        C  0.53192225  0.11712239  0.89406240     1.05200
O153        O  0.55033052  0.14134484  0.77815436    -0.77400
C154        C  0.55193006  0.22943307  0.84244016     1.03500
Fe155      Fe  0.49560426  0.26988191  0.33716085     1.65800
Fe156      Fe  0.50924431  0.33578206  0.31489301     1.73200
Fe157      Fe  0.55235991  0.29814784  0.37618288     1.54400
O158        O  0.53662767  0.27319335  0.42426349    -0.81100
O159        O  0.54632380  0.34368482  0.28938831    -0.79400
O160        O  0.49575031  0.26199475  0.40439534    -0.83600
O161        O  0.52731950  0.24388044  0.32664425    -0.78500
O162        O  0.54249513  0.32965215  0.41580640    -0.80200
O163        O  0.49991028  0.31765504  0.25379819    -0.83000
C164        C  0.55253203  0.24563456  0.32582797     0.97800
C165        C  0.51457771  0.26221885  0.43249442     1.05200
O166        O  0.51900339  0.30138253  0.34264058    -1.12000
O167        O  0.47099146  0.33362674  0.33714863    -0.74400
O168        O  0.46058822  0.29094556  0.34747641    -0.77900
O169        O  0.56456174  0.26645914  0.33854892    -0.78600
C170        C  0.45471531  0.31554069  0.34786735     0.96700
O171        O  0.49335655  0.27464592  0.26950085    -0.76500
O172        O  0.51786020  0.35690965  0.37340776    -0.81700
C173        C  0.56955346  0.33876638  0.30307805     0.99300
C174        C  0.52975982  0.35117127  0.40994452     1.05200
O175        O  0.57408015  0.32269249  0.33488439    -0.77400
C176        C  0.49545845  0.29367428  0.24171262     1.03500
Fe177      Fe  0.20712677  0.98283868  0.34435735     1.65800
Fe178      Fe  0.18461125  0.92386487  0.38797469     1.73200
Fe179      Fe  0.14596448  0.95921147  0.31530826     1.54400
O180        O  0.14427926  0.99992186  0.32379832    -0.81100
O181        O  0.17024341  0.89669058  0.34231791    -0.79400
O182        O  0.18130183  0.01416939  0.35638164    -0.83600
O183        O  0.20234715  0.98621177  0.27622729    -0.78500
O184        O  0.12291356  0.95469601  0.37215178    -0.80200
O185        O  0.22205267  0.91676907  0.36350345    -0.83000
C186        C  0.18772074  0.97561908  0.24660329     0.97800
C187        C  0.15781052  0.01808683  0.34262155     1.05200
O188        O  0.17919514  0.95531326  0.34956956    -1.12000
O189        O  0.19983228  0.94574391  0.44027652    -0.74400
O190        O  0.21652535  0.98294676  0.41128962    -0.77900
O191        O  0.16653311  0.96308124  0.25594889    -0.78600
C192        C  0.21289137  0.96724930  0.44381907     0.96700
O193        O  0.23599741  0.95452980  0.33186363    -0.76500
O194        O  0.14743688  0.92753098  0.41522832    -0.81700
C195        C  0.15178400  0.89742931  0.31365317     0.99300
C196        C  0.12598980  0.93979477  0.40632350     1.05200
O197        O  0.14139313  0.91924917  0.30146165    -0.77400
C198        C  0.23914747  0.93007178  0.34175753     1.03500
Fe199      Fe  0.27731314  0.97478020  0.84710333     1.65800
Fe200      Fe  0.33659506  0.94809078  0.81498161     1.73200
Fe201      Fe  0.29609074  0.91331943  0.88555179     1.54400
O202        O  0.28166081  0.93448433  0.93909171    -0.81100
O203        O  0.33765533  0.90859811  0.79619994    -0.79400
O204        O  0.27011932  0.97470041  0.91470808    -0.83600
O205        O  0.24602704  0.94882289  0.83565474    -0.78500
O206        O  0.33308509  0.91499288  0.91459715    -0.80200
O207        O  0.31627884  0.95634994  0.75645637    -0.83000
C208        C  0.24171596  0.92407903  0.84133597     0.97800
C209        C  0.27219833  0.95749453  0.94555634     1.05200
O210        O  0.30335471  0.94537202  0.84935497    -1.12000
O211        O  0.34188814  0.98800864  0.82832684    -0.74400
O212        O  0.30542154  0.00418332  0.85855515    -0.77900
O213        O  0.25860548  0.90861104  0.85929369    -0.78600
C214        C  0.32933776  0.00684675  0.84675862     0.96700
O215        O  0.28057364  0.97865293  0.77887132    -0.76500
O216        O  0.35953712  0.93961267  0.87077597    -0.81700
C217        C  0.32655070  0.88714353  0.80807997     0.99300
C218        C  0.35530293  0.92560761  0.90551533     1.05200
O219        O  0.30926891  0.88661154  0.83854341    -0.77400
C220        C  0.29527487  0.96948134  0.74838019     1.03500
Fe221      Fe  0.48697479  0.70002476  0.72062000     1.65800
Fe222      Fe  0.43152033  0.67039243  0.67988489     1.73200
Fe223      Fe  0.46962646  0.63689608  0.75405625     1.54400
O224        O  0.50844201  0.63545315  0.73406851    -0.81100
O225        O  0.40843980  0.64592655  0.71918340    -0.79400
O226        O  0.52123051  0.67694957  0.71719398    -0.83600
O227        O  0.48801389  0.70002006  0.78910659    -0.78500
O228        O  0.45951034  0.61168044  0.70030955    -0.80200
O229        O  0.41776321  0.70270777  0.71408578    -0.83000
C230        C  0.48522844  0.68264782  0.81945162     0.97800
C231        C  0.52600922  0.65223357  0.72251225     1.05200
O232        O  0.46297955  0.66906000  0.71827029    -1.12000
O233        O  0.44768913  0.69531346  0.63229363    -0.74400
O234        O  0.48906948  0.70421690  0.65224615    -0.77900
O235        O  0.47954941  0.65839706  0.81126629    -0.78600
C236        C  0.47015207  0.70539703  0.62448172     0.96700
O237        O  0.45488953  0.72636790  0.72468157    -0.76500
O238        O  0.44432514  0.63788077  0.64495163    -0.81700
C239        C  0.41012916  0.63565936  0.75772681     0.99300
C240        C  0.45178424  0.61532809  0.65992595     1.05200
O241        O  0.43172041  0.63477411  0.77922644    -0.77400
C242        C  0.42968300  0.72404800  0.72535095     1.03500
Fe243      Fe  0.48699874  0.77139456  0.22033713     1.65800
Fe244      Fe  0.46464926  0.83268489  0.25361012     1.73200
Fe245      Fe  0.42937419  0.79603451  0.17909272     1.54400
O246        O  0.44823254  0.77388291  0.13073650    -0.81100
O247        O  0.42671158  0.83157690  0.27798395    -0.79400
O248        O  0.48988615  0.76759417  0.15190422    -0.83600
O249        O  0.45731235  0.74192809  0.22333777    -0.78500
O250        O  0.43942342  0.82988593  0.14506079    -0.80200
O251        O  0.47610743  0.81216159  0.31118111    -0.83000
C252        C  0.43198919  0.74127572  0.22235242     0.97800
C253        C  0.47162683  0.76637732  0.12279355     1.05200
O254        O  0.46050766  0.80005205  0.21779653    -1.12000
O255        O  0.50288753  0.83791816  0.23337375    -0.74400
O256        O  0.51933863  0.79792410  0.21718632    -0.77900
O257        O  0.41828738  0.76163179  0.21152826    -0.78600
C258        C  0.52189279  0.82311678  0.22178502     0.96700
O259        O  0.48678257  0.77114017  0.28896113    -0.76500
O260        O  0.45278311  0.85705473  0.20031278    -0.81700
C261        C  0.40528368  0.83023739  0.25614344     0.99300
C262        C  0.44503242  0.85284665  0.16026785     1.05200
O263        O  0.40410260  0.81837349  0.21874794    -0.77400
C264        C  0.48238258  0.78808960  0.31935397     1.03500
Fe265      Fe  0.99600852  0.70510203  0.21685913     1.65800
Fe266      Fe  0.01398724  0.63999898  0.23660053     1.73200
Fe267      Fe  0.05190260  0.67963640  0.16999536     1.54400
O268        O  0.03341259  0.70428866  0.12471934    -0.81100
O269        O  0.05237228  0.63494311  0.25901024    -0.79400
O270        O  0.99360201  0.71452744  0.14959678    -0.83600
O271        O  0.02730589  0.73189773  0.22694290    -0.78500
O272        O  0.04125261  0.64781648  0.13090612    -0.80200
O273        O  0.00569674  0.65697486  0.29851443    -0.83000
C274        C  0.05247110  0.73123902  0.22343284     0.97800
C275        C  0.01093641  0.71497447  0.11923215     1.05200
O276        O  0.02058769  0.67491204  0.20805236    -1.12000
O277        O  0.97483691  0.63990727  0.21760042    -0.74400
O278        O  0.96194051  0.68199935  0.20771041    -0.77900
O279        O  0.06481442  0.71182539  0.20621461    -0.78600
C280        C  0.95736200  0.65704219  0.20772841     0.96700
O281        O  0.99525597  0.69953253  0.28501725    -0.76500
O282        O  0.02189346  0.61918643  0.17770871    -0.81700
C283        C  0.07437916  0.64031046  0.24111789     0.99300
C284        C  0.03112597  0.62519818  0.13934539     1.05200
O285        O  0.07630575  0.65564702  0.20767011    -0.77400
C286        C  0.99919561  0.68018053  0.31156854     1.03500
Fe287      Fe  0.99343872  0.77154492  0.71486423     1.65800
Fe288      Fe  0.04764093  0.79800451  0.66255196     1.73200
Fe289      Fe  0.01307543  0.83585117  0.73686527     1.54400
O290        O  0.97317090  0.83624662  0.72444298    -0.81100
O291        O  0.07424630  0.81984706  0.70049041    -0.79400
O292        O  0.95947403  0.79510382  0.70741265    -0.83600
O293        O  0.99358790  0.77669504  0.78293287    -0.78500
O294        O  0.01882107  0.85857978  0.67935560    -0.80200
O295        O  0.06100743  0.76406317  0.69421757    -0.83000
C296        C  0.99997076  0.79468605  0.81067633     0.97800
C297        C  0.95507775  0.81982818  0.71380654     1.05200
O298        O  0.01791749  0.80182684  0.70456203    -1.12000
O299        O  0.02682795  0.77554495  0.61656869    -0.74400
O300        O  0.98991362  0.76092204  0.64831240    -0.77900
O301        O  0.00757728  0.81763800  0.79834060    -0.78600
C302        C  0.00538029  0.76246083  0.61525787     0.96700
O303        O  0.02497595  0.74528099  0.72428471    -0.76500
O304        O  0.03669051  0.83169765  0.62798848    -0.81700
C305        C  0.07366894  0.83427317  0.73510075     0.99300
C306        C  0.02761159  0.85409743  0.64028393     1.05200
O307        O  0.05218193  0.83998143  0.75430133    -0.77400
C308        C  0.04972417  0.74550694  0.71601128     1.03500
Fe309      Fe  0.27336090  0.49098187  0.34781976     1.65800
Fe310      Fe  0.29319777  0.55083481  0.39041859     1.73200
Fe311      Fe  0.33575462  0.51541046  0.32588869     1.54400
O312        O  0.33894721  0.47571211  0.34133210    -0.81100
O313        O  0.31313078  0.57762794  0.35022484    -0.79400
O314        O  0.29928234  0.45905549  0.35627430    -0.83600
O315        O  0.27791391  0.49052065  0.27958600    -0.78500
O316        O  0.35602093  0.52392730  0.38561450    -0.80200
O317        O  0.25933029  0.55894639  0.35474041    -0.83000
C318        C  0.29544602  0.49813228  0.25207244     0.97800
C319        C  0.32410508  0.45635153  0.35190943     1.05200
O320        O  0.30087516  0.51900706  0.35467412    -1.12000
O321        O  0.27238381  0.53015275  0.43833685    -0.74400
O322        O  0.26557220  0.48858005  0.41535221    -0.77900
O323        O  0.31799744  0.50716150  0.26425869    -0.78600
C324        C  0.26467967  0.50646951  0.44514414     0.96700
O325        O  0.24334851  0.51893249  0.33795905    -0.76500
O326        O  0.32654052  0.54492425  0.42822885    -0.81700
C327        C  0.33064909  0.57658601  0.32027185     0.99300
C328        C  0.34950080  0.53528398  0.42209859     1.05200
O329        O  0.33922838  0.55465291  0.30546747    -0.77400
C330        C  0.24108625  0.54418115  0.33895738     1.03500
Fe331      Fe  0.20623119  0.49752491  0.84749898     1.65800
Fe332      Fe  0.14359756  0.51863556  0.82048480     1.73200
Fe333      Fe  0.18242447  0.55598578  0.89057832     1.54400
O334        O  0.20296755  0.53583132  0.94047014    -0.81100
O335        O  0.14014992  0.55757714  0.79967124    -0.79400
O336        O  0.21365339  0.49571734  0.91524199    -0.83600
O337        O  0.23491131  0.52716340  0.83970845    -0.78500
O338        O  0.14792925  0.54824380  0.92441487    -0.80200
O339        O  0.16226370  0.51053813  0.76047210    -0.83000
C340        C  0.23628805  0.55241899  0.84427390     0.97800
C341        C  0.21331409  0.51299535  0.94601181     1.05200
O342        O  0.17744183  0.52406574  0.85276739    -1.12000
O343        O  0.14152810  0.47896582  0.83629149    -0.74400
O344        O  0.18144871  0.46441961  0.85542764    -0.77900
O345        O  0.21742405  0.56624803  0.85974402    -0.78600
C346        C  0.15681901  0.46051398  0.84935895     0.96700
O347        O  0.20259413  0.49609490  0.77884421    -0.76500
O348        O  0.12135669  0.52602682  0.87753685    -0.81700
C349        C  0.14678503  0.58001741  0.81526382     0.99300
C350        C  0.12603060  0.53692991  0.91523440     1.05200
O351        O  0.16258187  0.58205584  0.84821997    -0.77400
C352        C  0.18500362  0.50188510  0.74987108     1.03500
C353        C  0.19626296  0.51391374  0.62537367    -0.11300
C354        C  0.21374950  0.49307165  0.61556948     0.11300
C355        C  0.21969948  0.47376009  0.64863874    -0.03100
C356        C  0.20881246  0.47680623  0.69146922    -0.05800
C357        C  0.19199048  0.49822402  0.70200908    -0.16600
C358        C  0.18459466  0.51650682  0.66777013     0.02300
C359        C  0.22716264  0.49345409  0.57154400     0.12300
C360        C  0.23790400  0.45037893  0.63905861     0.62900
H361        H  0.21394718  0.46270965  0.71760128     0.12300
C362        C  0.16504498  0.53897369  0.67572828     0.55000
H363        H  0.19224852  0.52853182  0.59951028     0.08100
C364        C  0.21399750  0.48641783  0.53127192    -0.05700
C365        C  0.22756102  0.48954667  0.49059391    -0.06500
C366        C  0.25333383  0.50005824  0.48924685    -0.16100
C367        C  0.26682794  0.50612403  0.52967372    -0.01600
C368        C  0.25332400  0.50287671  0.57024399    -0.09200
C369        C  0.18559322  0.47634314  0.53115500     0.65100
H370        H  0.21764783  0.48507329  0.45925519     0.10500
C371        C  0.29532035  0.51600389  0.53012952     0.63500
H372        H  0.26284866  0.50849069  0.60140790     0.07900
F373        F  0.16173652  0.55488458  0.63820311    -0.19600
F374        F  0.17387889  0.55504616  0.71029965    -0.15800
F375        F  0.14056695  0.52832526  0.68629525    -0.19300
F376        F  0.26345476  0.45942602  0.63237749    -0.22700
F377        F  0.22932226  0.43704974  0.60120449    -0.24100
F378        F  0.23841169  0.43227181  0.67408380    -0.18100
F379        F  0.29636034  0.54200767  0.51477233    -0.20600
F380        F  0.31074444  0.49999411  0.50313183    -0.21800
F381        F  0.30614761  0.51542760  0.57278038    -0.19000
F382        F  0.17746326  0.46844759  0.48889658    -0.19100
F383        F  0.16878064  0.49631173  0.54523263    -0.22900
F384        F  0.18324538  0.45467781  0.55953194    -0.24500
C385        C  0.26141455  0.48969384  0.03733574    -0.11300
C386        C  0.24922582  0.49990357  0.07553254     0.11300
C387        C  0.22496842  0.51382695  0.07148442    -0.03100
C388        C  0.21369958  0.51705756  0.02869519    -0.05800
C389        C  0.22568988  0.50671775  0.99014464    -0.16600
C390        C  0.25006662  0.49268166  0.99450572     0.02300
C391        C  0.26342156  0.49754624  0.11894325     0.12300
C392        C  0.21127063  0.52555582  0.11210994     0.62900
H393        H  0.19549192  0.52813115  0.02497238     0.12300
C394        C  0.26483765  0.48192084  0.95430634     0.55000
H395        H  0.28022993  0.47960376  0.04146581     0.08100
C396        C  0.26176245  0.47444739  0.14599351    -0.05700
C397        C  0.27391798  0.47484220  0.18849335    -0.06500
C398        C  0.28808497  0.49726076  0.20396265    -0.16100
C399        C  0.29117188  0.51967642  0.17535256    -0.01600
C400        C  0.27886222  0.51925528  0.13302944    -0.09200
C401        C  0.24705439  0.44969522  0.13010635     0.65100
H402        H  0.27189412  0.45781669  0.21058405     0.10500
C403        C  0.30615929  0.54448837  0.19007400     0.63500
H404        H  0.28041750  0.53632450  0.11091886     0.07900
F405        F  0.28958176  0.47213063  0.96589267    -0.19600
F406        F  0.26849098  0.50203950  0.92335043    -0.15800
F407        F  0.25056395  0.46134235  0.93498507    -0.19300
F408        F  0.22730533  0.54460608  0.13187703    -0.22700
F409        F  0.20601644  0.50567277  0.14290550    -0.24100
F410        F  0.18750351  0.53761311  0.10084850    -0.18100
F411        F  0.30520489  0.56446133  0.15805811    -0.20600
F412        F  0.33248655  0.53823426  0.19751095    -0.21800
F413        F  0.29522772  0.55443171  0.22892371    -0.19000
F414        F  0.24781678  0.42944886  0.16164307    -0.19100
F415        F  0.25851428  0.44023977  0.09140010    -0.22900
F416        F  0.22080777  0.45570139  0.12146479    -0.24500
C417        C  0.08339901  0.69220150  0.78726090    -0.11300
C418        C  0.09838974  0.67891132  0.75488094     0.11300
C419        C  0.09780952  0.68790823  0.70997592    -0.03100
C420        C  0.08191846  0.71001960  0.69894434    -0.05800
C421        C  0.06629651  0.72284515  0.73105044    -0.16600
C422        C  0.06749236  0.71432841  0.77622742     0.02300
C423        C  0.11223255  0.65398738  0.76825721     0.12300
C424        C  0.11339540  0.67382872  0.67372448     0.62900
H425        H  0.08094559  0.71704605  0.66469925     0.12300
C426        C  0.05265821  0.72888165  0.81278619     0.55000
H427        H  0.08388161  0.68469585  0.82124427     0.08100
C428        C  0.13712612  0.65390237  0.79017464    -0.05700
C429        C  0.14827872  0.62922725  0.80282780    -0.06500
C430        C  0.13493621  0.60482899  0.79570338    -0.16100
C431        C  0.10956487  0.60524643  0.77425264    -0.01600
C432        C  0.09893905  0.62990926  0.76073037    -0.09200
C433        C  0.15138356  0.67979000  0.80137576     0.65100
H434        H  0.16733424  0.62892453  0.81962449     0.10500
C435        C  0.09291137  0.58024623  0.76695434     0.63500
H436        H  0.07966724  0.63078579  0.74465920     0.07900
F437        F  0.05850792  0.75583796  0.81112409    -0.19600
F438        F  0.05965820  0.71959579  0.85481900    -0.15800
F439        F  0.02568425  0.72526917  0.80726521    -0.19300
F440        F  0.10382312  0.64819819  0.66805755    -0.22700
F441        F  0.13987847  0.67262591  0.68550610    -0.24100
F442        F  0.11147518  0.68694931  0.63304945    -0.18100
F443        F  0.08895094  0.56730658  0.80729259    -0.20600
F444        F  0.10550924  0.56340993  0.73737657    -0.21800
F445        F  0.06819171  0.58602042  0.74911175    -0.19000
F446        F  0.17588121  0.67524872  0.82099555    -0.19100
F447        F  0.13637209  0.69447053  0.83093794    -0.22900
F448        F  0.15528629  0.69466014  0.76301428    -0.24500
C449        C  0.12855405  0.60906588  0.31368563    -0.11300
C450        C  0.14589443  0.59992371  0.28056609     0.11300
C451        C  0.13965099  0.60403554  0.23488558    -0.03100
C452        C  0.11609533  0.61742289  0.22397808    -0.05800
C453        C  0.09877263  0.62684314  0.25698879    -0.16600
C454        C  0.10519698  0.62300635  0.30275134     0.02300
C455        C  0.17047980  0.58605580  0.29483831     0.12300
C456        C  0.15774456  0.59443894  0.19776340     0.62900
H457        H  0.11077295  0.62032054  0.18916792     0.12300
C458        C  0.08823518  0.63445654  0.33978853     0.55000
H459        H  0.13364270  0.60532483  0.34835936     0.08100
C460        C  0.19255652  0.60008673  0.31203391    -0.05700
C461        C  0.21494423  0.58552766  0.32569970    -0.06500
C462        C  0.21632540  0.55745153  0.32197857    -0.16100
C463        C  0.19426869  0.54359772  0.30279389    -0.01600
C464        C  0.17148462  0.55825619  0.29090795    -0.09200
C465        C  0.19255618  0.63036261  0.31573389     0.65100
H466        H  0.23157365  0.59627261  0.33963838     0.10500
C467        C  0.19434100  0.51372617  0.29388378     0.63500
H468        H  0.15413950  0.54816799  0.27801759     0.07900
F469        F  0.08385366  0.66130852  0.33196995    -0.19600
F470        F  0.10037358  0.63200155  0.38124187    -0.15800
F471        F  0.06423151  0.62118211  0.34146814    -0.19300
F472        F  0.15892238  0.56690181  0.19791117    -0.22700
F473        F  0.18296096  0.60466028  0.20389967    -0.24100
F474        F  0.14882312  0.60245097  0.15596794    -0.18100
F475        F  0.19602752  0.49987214  0.33383740    -0.20600
F476        F  0.21551671  0.50726231  0.26682917    -0.21800
F477        F  0.17149815  0.50536738  0.27211421    -0.19000
F478        F  0.21682217  0.64016287  0.33007058    -0.19100
F479        F  0.17364579  0.63841785  0.34602739    -0.22900
F480        F  0.18699427  0.64161820  0.27449171    -0.24500
C481        C  0.09029680  0.54584140  0.02555776    -0.11300
C482        C  0.06421518  0.54985698  0.01077395     0.11300
C483        C  0.05765758  0.54436555  0.96558669    -0.03100
C484        C  0.07822024  0.53890212  0.93539507    -0.05800
C485        C  0.10482107  0.53757543  0.94955234    -0.16600
C486        C  0.11057114  0.53878994  0.99607403     0.02300
C487        C  0.04682155  0.56560064  0.04072003     0.12300
C488        C  0.02951946  0.54460315  0.94763863     0.62900
H489        H  0.07346299  0.53671363  0.90019274     0.12300
C490        C  0.13802726  0.53377191  0.01513211     0.55000
H491        H  0.09527493  0.55028375  0.06001670     0.08100
C492        C  0.04176065  0.55792431  0.08543070    -0.05700
C493        C  0.03501347  0.57772275  0.11656708    -0.06500
C494        C  0.03185945  0.60455121  0.10368567    -0.16100
C495        C  0.03245083  0.61110470  0.05736463    -0.01600
C496        C  0.04062816  0.59157829  0.02689321    -0.09200
C497        C  0.04507990  0.52945960  0.10160378     0.65100
H498        H  0.03365704  0.57235520  0.15161035     0.10500
C499        C  0.02665902  0.63889262  0.03963368     0.63500
H500        H  0.04434071  0.59717901  0.99246669     0.07900
F501        F  0.14966092  0.51238699  0.99367547    -0.19600
F502        F  0.13696755  0.52763593  0.06025540    -0.15800
F503        F  0.15350622  0.55636429  0.01001874    -0.19300
F504        F  0.02660475  0.56539343  0.91756250    -0.22700
F505        F  0.01088388  0.54730197  0.98102444    -0.24100
F506        F  0.02447751  0.52080171  0.92579143    -0.18100
F507        F  0.04889699  0.65475409  0.04476539    -0.20600
F508        F  0.00556476  0.65007370  0.06210839    -0.21800
F509        F  0.02003417  0.63827311  0.99462611    -0.19000
F510        F  0.02596997  0.52345457  0.13308220    -0.19100
F511        F  0.06979856  0.52639936  0.12106741    -0.22900
F512        F  0.04231431  0.51149283  0.06679670    -0.24500
C513        C  0.99462062  0.70705466  0.53021640    -0.11300
C514        C  0.99534209  0.72164637  0.49020468     0.11300
C515        C  0.99629978  0.74988405  0.49162590    -0.03100
C516        C  0.99857825  0.76256261  0.53339982    -0.05800
C517        C  0.99896192  0.74797897  0.57345429    -0.16600
C518        C  0.99644045  0.71977155  0.57213610     0.02300
C519        C  0.99636176  0.70694528  0.44710387     0.12300
C520        C  0.99496595  0.76649286  0.44913704     0.62900
H521        H  0.00044950  0.78405191  0.53515545     0.12300
C522        C  0.99704879  0.70309690  0.61459468     0.55000
H523        H  0.99346532  0.68551302  0.52818841     0.08100
C524        C  0.02077126  0.69900019  0.42814082    -0.05700
C525        C  0.02074421  0.68864598  0.38441512    -0.06500
C526        C  0.99717739  0.68575244  0.35987834    -0.16100
C527        C  0.97262235  0.69131139  0.38038188    -0.01600
C528        C  0.97261097  0.70198289  0.42393359    -0.09200
C529        C  0.04668343  0.70173825  0.45387207     0.65100
H530        H  0.03924081  0.68367081  0.36835102     0.10500
C531        C  0.94668759  0.68581334  0.35618565     0.63500
H532        H  0.95412561  0.70742594  0.43965242     0.07900
F533        F  0.02038088  0.70780703  0.63779588    -0.19600
F534        F  0.99555739  0.67604776  0.60557400    -0.15800
F535        F  0.97577420  0.70965635  0.64127412    -0.19300
F536        F  0.97110545  0.76187300  0.42754735    -0.22700
F537        F  0.01542862  0.75974494  0.42091865    -0.24100
F538        F  0.99684424  0.79354287  0.45795709    -0.18100
F539        F  0.94606917  0.65951028  0.34224184    -0.20600
F540        F  0.94433634  0.70233608  0.31932242    -0.21800
F541        F  0.92507121  0.69004271  0.38352545    -0.19000
F542        F  0.06809260  0.69321184  0.42899963    -0.19100
F543        F  0.04560831  0.68644236  0.49234318    -0.22900
F544        F  0.05103964  0.72807259  0.46546932    -0.24500
C545        C  0.98548578  0.76114803  0.02580172    -0.11300
C546        C  0.00080929  0.75222380  0.98993656     0.11300
C547        C  0.01890555  0.73109154  0.99631537    -0.03100
C548        C  0.02069291  0.71919169  0.03865146    -0.05800
C549        C  0.00549066  0.72792355  0.07512220    -0.16600
C550        C  0.98745246  0.74941722  0.06861364     0.02300
C551        C  0.99797088  0.76561447  0.94595094     0.12300
C552        C  0.03668012  0.72149121  0.95877472     0.62900
H553        H  0.03456185  0.70306920  0.04368103     0.12300
C554        C  0.97091964  0.76063414  0.10641463     0.55000
H555        H  0.97202277  0.77758786  0.01984370     0.08100
C556        C  0.97854454  0.75760421  0.91455830    -0.05700
C557        C  0.97922365  0.76873174  0.87146594    -0.06500
C558        C  0.99842367  0.78773605  0.85902300    -0.16100
C559        C  0.01666042  0.79722899  0.89184403    -0.01600
C560        C  0.01600583  0.78584668  0.93494550    -0.09200
C561        C  0.95740518  0.73718946  0.92646178     0.65100
H562        H  0.96493208  0.76217612  0.84664641     0.10500
C563        C  0.03728703  0.81848112  0.88158971     0.63500
H564        H  0.03019115  0.79199190  0.96024262     0.07900
F565        F  0.95309650  0.74156206  0.12098442    -0.19600
F566        F  0.95655223  0.78279946  0.09307399    -0.15800
F567        F  0.98725878  0.76826997  0.14145726    -0.19300
F568        F  0.05355710  0.74184113  0.94600000    -0.22700
F569        F  0.02150684  0.71376397  0.92242025    -0.24100
F570        F  0.05203474  0.69990927  0.97165709    -0.18100
F571        F  0.02481242  0.84211459  0.87031605    -0.20600
F572        F  0.05310622  0.81030591  0.84662597    -0.21800
F573        F  0.05362946  0.82352649  0.91798502    -0.19000
F574        F  0.94051673  0.73209837  0.89081524    -0.19100
F575        F  0.94236771  0.74662919  0.96148155    -0.22900
F576        F  0.96902930  0.71337022  0.93906258    -0.24500
C577        C  0.41284074  0.66795044  0.24491751    -0.11300
C578        C  0.38601497  0.67066948  0.25584568     0.11300
C579        C  0.37442963  0.69632809  0.25582286    -0.03100
C580        C  0.39033254  0.71854221  0.24537675    -0.05800
C581        C  0.41734073  0.71612107  0.23419287    -0.16600
C582        C  0.42869988  0.69008209  0.23305287     0.02300
C583        C  0.37103845  0.64656512  0.27059357     0.12300
C584        C  0.34529708  0.70025870  0.26667026     0.62900
H585        H  0.38158377  0.73821897  0.24629773     0.12300
C586        C  0.45709061  0.68517596  0.21857600     0.55000
H587        H  0.42133335  0.64814249  0.24611657     0.08100
C588        C  0.36138098  0.62697248  0.24046874    -0.05700
C589        C  0.34760585  0.60470834  0.25775178    -0.06500
C590        C  0.34283757  0.60180671  0.30379248    -0.16100
C591        C  0.35243631  0.62166679  0.33375432    -0.01600
C592        C  0.36677959  0.64339862  0.31649116    -0.09200
C593        C  0.36573323  0.62951777  0.19044745     0.65100
H594        H  0.34058563  0.58923682  0.23540579     0.10500
C595        C  0.34849713  0.61965375  0.38399734     0.63500
H596        H  0.37482423  0.65839053  0.33883419     0.07900
F597        F  0.46268188  0.65822274  0.21515316    -0.19600
F598        F  0.47448714  0.69600344  0.24953407    -0.15800
F599        F  0.46132649  0.69654315  0.17701262    -0.19300
F600        F  0.34060192  0.69360361  0.31077280    -0.22700
F601        F  0.32983383  0.68430101  0.23928692    -0.24100
F602        F  0.33741617  0.72644163  0.26035020    -0.18100
F603        F  0.36153787  0.63981821  0.40687667    -0.20600
F604        F  0.35826722  0.59559603  0.39943699    -0.21800
F605        F  0.32183658  0.62155150  0.39382577    -0.19000
F606        F  0.35311230  0.60934458  0.16692716    -0.19100
F607        F  0.39249027  0.62820389  0.18123657    -0.22900
F608        F  0.35591997  0.65364197  0.17526838    -0.24500
C609        C  0.35019405  0.61901523  0.82935180    -0.11300
C610        C  0.33752863  0.60007727  0.80199107     0.11300
C611        C  0.34923967  0.59236288  0.76114078    -0.03100
C612        C  0.37341693  0.60403668  0.74890837    -0.05800
C613        C  0.38610264  0.62300762  0.77603908    -0.16600
C614        C  0.37460537  0.63056558  0.81715373     0.02300
C615        C  0.31163265  0.58894985  0.81606813     0.12300
C616        C  0.33599858  0.57228384  0.73014445     0.62900
H617        H  0.38255090  0.59868792  0.71748412     0.12300
C618        C  0.38777410  0.65102522  0.84731899     0.55000
H619        H  0.34071667  0.62469552  0.86028227     0.08100
C620        C  0.30987238  0.56672489  0.84506549    -0.05700
C621        C  0.28484693  0.55533933  0.85267357    -0.06500
C622        C  0.26164985  0.56593241  0.83361828    -0.16100
C623        C  0.26333454  0.58898312  0.80613059    -0.01600
C624        C  0.28848908  0.60011954  0.79789269    -0.09200
C625        C  0.33428678  0.55524501  0.86797779     0.65100
H626        H  0.28315601  0.53804373  0.87426372     0.10500
C627        C  0.23898355  0.60109559  0.78406474     0.63500
H628        H  0.29044377  0.61740676  0.77627947     0.07900
F629        F  0.41152469  0.64096610  0.86314751    -0.19600
F630        F  0.37216191  0.65724485  0.88372875    -0.15800
F631        F  0.39249637  0.67430973  0.82370557    -0.19300
F632        F  0.31217288  0.58238473  0.71475641    -0.22700
F633        F  0.33135699  0.54864363  0.75266579    -0.24100
F634        F  0.35153488  0.56660368  0.69339584    -0.18100
F635        F  0.22236555  0.61142186  0.81621455    -0.20600
F636        F  0.22561831  0.58175714  0.75983409    -0.21800
F637        F  0.24556425  0.62160861  0.75506215    -0.19000
F638        F  0.32809287  0.53359908  0.89482724    -0.19100
F639        F  0.34594209  0.57450038  0.89470132    -0.22900
F640        F  0.35238174  0.54693058  0.83647130    -0.24500
C641        C  0.44318547  0.57832735  0.55227703    -0.11300
C642        C  0.42353626  0.56021937  0.56529494     0.11300
C643        C  0.41980760  0.55470085  0.61124496    -0.03100
C644        C  0.43255250  0.57121768  0.64291003    -0.05800
C645        C  0.44900389  0.59237275  0.62930891    -0.16600
C646        C  0.45629567  0.59439029  0.58373046     0.02300
C647        C  0.40386595  0.55216947  0.53085018     0.12300
C648        C  0.40185598  0.53209356  0.62629147     0.62900
H649        H  0.42773060  0.56933097  0.67802890     0.12300
C650        C  0.47674319  0.61397104  0.56644297     0.55000
H651        H  0.44669262  0.58158914  0.51692838     0.08100
C652        C  0.38143335  0.56832690  0.52247411    -0.05700
C653        C  0.36430964  0.56131484  0.48748056    -0.06500
C654        C  0.36915821  0.53948885  0.45907934    -0.16100
C655        C  0.39194921  0.52345706  0.46714385    -0.01600
C656        C  0.40885654  0.53006329  0.50343315    -0.12400
C657        C  0.37606330  0.59366954  0.54910629     0.65100
H658        H  0.34720891  0.57375309  0.48111561     0.10500
C659        C  0.39857766  0.49964284  0.43802509     0.63500
H660        H  0.42652543  0.51846526  0.51006862     0.07900
F661        F  0.46443450  0.63281130  0.53965090    -0.19600
F662        F  0.49519689  0.60037450  0.54123134    -0.15800
F663        F  0.49020287  0.62686905  0.60048027    -0.19300
F664        F  0.41131732  0.50829175  0.60950028    -0.22700
F665        F  0.37628066  0.53587114  0.61079755    -0.24100
F666        F  0.40104559  0.53006411  0.67244564    -0.18100
F667        F  0.40492878  0.50824272  0.39543937    -0.20600
F668        F  0.37713807  0.48243433  0.43590436    -0.21800
F669        F  0.42001784  0.48549800  0.45468097    -0.19000
F670        F  0.35301346  0.60623532  0.53529114    -0.19100
F671        F  0.39670851  0.61151165  0.54362970    -0.22900
F672        F  0.37347169  0.58782354  0.59401493    -0.24500
C673        C  0.46245486  0.75394914  0.52808192    -0.11300
C674        C  0.47994986  0.74301566  0.49698975     0.11300
C675        C  0.49609049  0.72107003  0.50917053    -0.03100
C676        C  0.49262814  0.70937940  0.55157150    -0.05800
C677        C  0.47399051  0.71940434  0.58170339    -0.16600
C678        C  0.45923579  0.74256108  0.57062963     0.02300
C679        C  0.48030902  0.75468944  0.45149079     0.12300
C680        C  0.51702252  0.71038797  0.47772359     0.62900
H681        H  0.50418526  0.69211875  0.56136314     0.12300
C682        C  0.44068731  0.75555739  0.60395305     0.55000
H683        H  0.45092031  0.77121991  0.51826181     0.08100
C684        C  0.46184464  0.74663607  0.41833656    -0.05700
C685        C  0.46332135  0.75835970  0.37576350    -0.06500
C686        C  0.48210594  0.77814057  0.36586769    -0.16100
C687        C  0.50017153  0.78661008  0.39933768    -0.01600
C688        C  0.49890267  0.77469603  0.44195081    -0.09200
C689        C  0.44058727  0.72590045  0.42798539     0.65100
H690        H  0.44962107  0.75226046  0.34965242     0.10500
C691        C  0.52107259  0.80743789  0.38963352     0.63500
H692        H  0.51249454  0.78077274  0.46820668     0.07900
F693        F  0.41969161  0.73871624  0.61312987    -0.19600
F694        F  0.43043197  0.77932741  0.58781973    -0.15800
F695        F  0.45433128  0.76103986  0.64313130    -0.19300
F696        F  0.53573511  0.72999456  0.46984043    -0.22700
F697        F  0.50561749  0.70291522  0.43751350    -0.24100
F698        F  0.52988158  0.68839052  0.49552197    -0.18100
F699        F  0.50893886  0.83134320  0.37904763    -0.20600
F700        F  0.53640375  0.79906750  0.35418269    -0.21800
F701        F  0.53766763  0.81169675  0.42598089    -0.19000
F702        F  0.42510209  0.72061135  0.39064295    -0.19100
F703        F  0.42412592  0.73499499  0.46139458    -0.22900
F704        F  0.45212837  0.70224809  0.44162616    -0.24500
C705        C  0.50699921  0.71693273  0.92702772    -0.11300
C706        C  0.48412785  0.71383928  0.95286719     0.11300
C707        C  0.46219418  0.69943612  0.93555356    -0.03100
C708        C  0.46424014  0.68795025  0.89286488    -0.05800
C709        C  0.48676299  0.69173299  0.86636555    -0.16600
C710        C  0.50860586  0.70642021  0.88353347     0.02300
C711        C  0.48302852  0.72760475  0.99664966     0.12300
C712        C  0.43628007  0.69744000  0.96097528     0.62900
H713        H  0.44755818  0.67730765  0.87860483     0.12300
C714        C  0.53339225  0.71116392  0.85609973     0.55000
H715        H  0.52326336  0.72849371  0.94075597     0.08100
C716        C  0.49237846  0.71559816  0.03657244    -0.05700
C717        C  0.48905554  0.72931875  0.07718558    -0.06500
C718        C  0.47721357  0.75463515  0.07854707    -0.16100
C719        C  0.46975045  0.76743906  0.03808680    -0.01600
C720        C  0.47269541  0.75352742  0.99765590    -0.09200
C721        C  0.50605827  0.68863943  0.03601573     0.65100
H722        H  0.49515634  0.72011972  0.10838251     0.10500
C723        C  0.45923070  0.79581373  0.03743157     0.63500
H724        H  0.46645902  0.76258739  0.96640439     0.07900
F725        F  0.54249334  0.68722352  0.83922547    -0.19600
F726        F  0.55353496  0.72241410  0.88149305    -0.15800
F727        F  0.52781085  0.72836982  0.82112212    -0.19300
F728        F  0.42556162  0.72260455  0.96595474    -0.22700
F729        F  0.44052261  0.68640022  0.00275916    -0.24100
F730        F  0.41787546  0.68172601  0.93874596    -0.18100
F731        F  0.45843197  0.80617098  0.99448596    -0.20600
F732        F  0.47547292  0.81211066  0.06298167    -0.21800
F733        F  0.43383023  0.79636373  0.05438684    -0.19000
F734        F  0.51303367  0.68025708  0.07861899    -0.19100
F735        F  0.52887780  0.69036626  0.01084571    -0.22900
F736        F  0.48957956  0.66953203  0.01747465    -0.24500
C737        C  0.17882702  0.90685327  0.77569174    -0.11300
C738        C  0.16863949  0.88608114  0.80186187     0.11300
C739        C  0.18221116  0.87792244  0.84101305    -0.03100
C740        C  0.20566404  0.89132961  0.85304502    -0.05800
C741        C  0.21591995  0.91240574  0.82715502    -0.16600
C742        C  0.20214746  0.92051597  0.78780551     0.02300
C743        C  0.14405997  0.87272062  0.78635402     0.12300
C744        C  0.17212829  0.85496108  0.86956886     0.62900
H745        H  0.21633504  0.88527556  0.88288989     0.12300
C746        C  0.21216671  0.94281153  0.75778415     0.55000
H747        H  0.16818133  0.91225227  0.74545889     0.08100
C748        C  0.11882257  0.88421117  0.79255707    -0.05700
C749        C  0.09650929  0.87067760  0.77578077    -0.06500
C750        C  0.09861695  0.84623695  0.75287548    -0.16100
C751        C  0.12409820  0.83469903  0.74704456    -0.01600
C752        C  0.14640681  0.84847265  0.76355829    -0.09200
C753        C  0.11549177  0.91068919  0.81662005     0.65100
H754        H  0.07712460  0.87952496  0.77971931     0.10500
C755        C  0.12805788  0.80790367  0.72435252     0.63500
H756        H  0.16609158  0.84049959  0.75857663     0.07900
F757        F  0.21132359  0.96686559  0.78027643    -0.19600
F758        F  0.19685304  0.94547634  0.71951548    -0.15800
F759        F  0.23787113  0.93751552  0.74482387    -0.19300
F760        F  0.17285195  0.83150665  0.84539166    -0.22700
F761        F  0.14635461  0.85977973  0.88259851    -0.24100
F762        F  0.18735819  0.85145469  0.90778169    -0.18100
F763        F  0.12256119  0.81012524  0.67914056    -0.20600
F764        F  0.11159388  0.78896481  0.74335491    -0.21800
F765        F  0.15385668  0.79890462  0.72884865    -0.19000
F766        F  0.08909716  0.91769849  0.82061440    -0.19100
F767        F  0.12814755  0.93077211  0.79324772    -0.22900
F768        F  0.12626121  0.90906894  0.85914352    -0.24500
C769        C  0.36252750  0.83497845  0.73818657    -0.11300
C770        C  0.36157202  0.81308405  0.76727275     0.11300
C771        C  0.34648577  0.81452667  0.80681577    -0.03100
C772        C  0.33359356  0.83856574  0.81681571    -0.05800
C773        C  0.33591511  0.86131319  0.78930390    -0.16600
C774        C  0.34967644  0.85909657  0.74807224     0.02300
C775        C  0.37831105  0.78971579  0.75690336     0.12300
C776        C  0.34499266  0.79122238  0.83935027     0.62900
H777        H  0.32299090  0.84017803  0.84802925     0.12300
C778        C  0.35119175  0.88178666  0.71445412     0.55000
H779        H  0.37436179  0.83331211  0.70822259     0.08100
C780        C  0.37086474  0.77063212  0.72447655    -0.05700
C781        C  0.38845428  0.74974641  0.71523308    -0.06500
C782        C  0.41297700  0.74722589  0.73753348    -0.16100
C783        C  0.42009497  0.76612426  0.77086526    -0.01600
C784        C  0.40271814  0.78741777  0.77920505    -0.09200
C785        C  0.34450305  0.77229466  0.69977557     0.65100
H786        H  0.38320894  0.73523932  0.68988371     0.10500
C787        C  0.44519349  0.76349027  0.79883754     0.63500
H788        H  0.40798522  0.80256664  0.80349105     0.07900
F789        F  0.35976656  0.87301501  0.67311116    -0.19600
F790        F  0.36879558  0.90102855  0.72936102    -0.15800
F791        F  0.32639821  0.89293417  0.70847620    -0.19300
F792        F  0.36960044  0.78685742  0.85846811    -0.22700
F793        F  0.33694247  0.76837955  0.81726881    -0.24100
F794        F  0.32719518  0.79596410  0.87345429    -0.18100
F795        F  0.44602726  0.78188623  0.83331648    -0.20600
F796        F  0.46720268  0.76767403  0.77243913    -0.21800
F797        F  0.44635216  0.73830197  0.81771743    -0.19000
F798        F  0.34057941  0.75071233  0.67164802    -0.19100
F799        F  0.34362851  0.79522628  0.67410670    -0.22900
F800        F  0.32392201  0.77272578  0.73002305    -0.24500
C801        C  0.40221612  0.89117296  0.98447180    -0.11300
C802        C  0.40808618  0.91213879  0.01385888     0.11300
C803        C  0.40090421  0.93856685  0.00269039    -0.03100
C804        C  0.38506597  0.94276242  0.96444992    -0.05800
C805        C  0.37688273  0.92128479  0.93769344    -0.16600
C806        C  0.38677831  0.89535105  0.94601062     0.02300
C807        C  0.41841010  0.90468795  0.05839525     0.12300
C808        C  0.40898662  0.96174696  0.03223180     0.62900
H809        H  0.37763392  0.96251350  0.95673690     0.12300
C810        C  0.38093613  0.87228304  0.91447052     0.55000
H811        H  0.40859873  0.87120853  0.99331821     0.08100
C812        C  0.40104535  0.89581792  0.09248715    -0.05700
C813        C  0.41169175  0.88162132  0.12857000    -0.06500
C814        C  0.43865413  0.87540435  0.13105969    -0.16100
C815        C  0.45639000  0.88616863  0.09927142    -0.01600
C816        C  0.44583795  0.90093791  0.06330588    -0.09200
C817        C  0.37104779  0.89869274  0.09133752     0.65100
H818        H  0.39833684  0.87326136  0.15329176     0.10500
C819        C  0.48613837  0.88204389  0.10076333     0.63500
H820        H  0.45892857  0.90791718  0.03712150     0.07900
F821        F  0.35415404  0.86653582  0.91404205    -0.19600
F822        F  0.39432791  0.84934616  0.92700262    -0.15800
F823        F  0.38880847  0.87906013  0.87169003    -0.19300
F824        F  0.43632200  0.96294058  0.03490794    -0.22700
F825        F  0.39882443  0.95835774  0.07470355    -0.24100
F826        F  0.39988365  0.98583520  0.01549295    -0.18100
F827        F  0.49424484  0.87001407  0.06158956    -0.20600
F828        F  0.49432860  0.86640611  0.13634447    -0.21800
F829        F  0.49848565  0.90661657  0.10443198    -0.19000
F830        F  0.36279308  0.91069314  0.13046241    -0.19100
F831        F  0.35962556  0.87363002  0.08853503    -0.22900
F832        F  0.36175144  0.91382925  0.05602137    -0.24500
C833        C  0.13918922  0.82393680  0.28411620    -0.11300
C834        C  0.11283828  0.82527937  0.26934643     0.11300
C835        C  0.09983639  0.85016505  0.26718882    -0.03100
C836        C  0.11385793  0.87313785  0.28005409    -0.05800
C837        C  0.14018987  0.87206087  0.29600278    -0.16600
C838        C  0.15329231  0.84690611  0.29751887     0.02300
C839        C  0.09888658  0.80014806  0.25779465     0.12300
C840        C  0.07100947  0.85234234  0.25246622     0.62900
H841        H  0.10374824  0.89214936  0.27938016     0.12300
C842        C  0.18182337  0.84387384  0.31325400     0.55000
H843        H  0.14844905  0.80448819  0.28590232     0.08100
C844        C  0.10073534  0.78859234  0.21484736    -0.05700
C845        C  0.08508743  0.76608798  0.20514935    -0.06500
C846        C  0.06832689  0.75464131  0.23726665    -0.16100
C847        C  0.06800954  0.76504437  0.28122859    -0.01600
C848        C  0.08323364  0.78794041  0.29065275    -0.09200
C849        C  0.11933067  0.79983778  0.17972906     0.65100
H850        H  0.08567320  0.75727559  0.17212596     0.10500
C851        C  0.05266962  0.75140066  0.31830271     0.63500
H852        H  0.08287431  0.79673452  0.32369905     0.07900
F853        F  0.19153707  0.81858053  0.30478095    -0.19600
F854        F  0.18342869  0.84808852  0.35888598    -0.15800
F855        F  0.19786922  0.86197298  0.29120327    -0.19300
F856        F  0.05505817  0.83848259  0.28191732    -0.22700
F857        F  0.06777586  0.84180047  0.21011520    -0.24100
F858        F  0.06244502  0.87855920  0.25132685    -0.18100
F859        F  0.06025932  0.72495549  0.32127157    -0.20600
F860        F  0.02579599  0.75272947  0.30952168    -0.21800
F861        F  0.05740718  0.76321759  0.35938981    -0.19000
F862        F  0.11772254  0.78579647  0.13998000    -0.19100
F863        F  0.14516909  0.79838863  0.19511859    -0.22900
F864        F  0.11319281  0.82617838  0.17081187    -0.24500
C865        C  0.07027935  0.94426375  0.49144328    -0.11300
C866        C  0.06607407  0.91692821  0.49952881     0.11300
C867        C  0.07928889  0.89771522  0.47301943    -0.03100
C868        C  0.09734416  0.90662667  0.44092661    -0.05800
C869        C  0.10326285  0.93374200  0.43542405    -0.16600
C870        C  0.08931513  0.95308044  0.46028679     0.02300
C871        C  0.05130667  0.90844952  0.53998056     0.12300
C872        C  0.07554285  0.86782947  0.47999500     0.62900
H873        H  0.10802585  0.89227457  0.42089599     0.12300
C874        C  0.09589109  0.98250755  0.45620450     0.55000
H875        H  0.05972165  0.95855582  0.51170205     0.08100
C876        C  0.06381698  0.90865779  0.58258421    -0.05700
C877        C  0.05304671  0.89288298  0.61679721    -0.06500
C878        C  0.03100088  0.87650970  0.60908062    -0.16100
C879        C  0.01689966  0.87841905  0.56825594    -0.01600
C880        C  0.02696416  0.89516534  0.53445952    -0.09200
C881        C  0.08939435  0.92397506  0.59109033     0.65100
H882        H  0.06324530  0.89125178  0.64868647     0.10500
C883        C  0.99197338  0.86214215  0.56028559     0.63500
H884        H  0.01729891  0.89598214  0.50204991     0.07900
F885        F  0.12240066  0.98650469  0.46614145    -0.19600
F886        F  0.08108154  0.99784209  0.48524179    -0.15800
F887        F  0.09078265  0.99119760  0.41311359    -0.19300
F888        F  0.04961773  0.86073267  0.47077945    -0.22700
F889        F  0.08168666  0.86103319  0.52368056    -0.24100
F890        F  0.09165177  0.85296865  0.45225050    -0.18100
F891        F  0.98042901  0.86793573  0.51929519    -0.20600
F892        F  0.97378414  0.86766828  0.59338547    -0.21800
F893        F  0.99787089  0.83523157  0.56123407    -0.19000
F894        F  0.09878851  0.92024717  0.63424807    -0.19100
F895        F  0.08502174  0.95095739  0.58511114    -0.22900
F896        F  0.10883722  0.91561524  0.56193183    -0.24500
C897        C  0.22166157  0.99682917  0.13890858    -0.11300
C898        C  0.22111554  0.97280528  0.11516035     0.11300
C899        C  0.20805031  0.95026017  0.13326128    -0.03100
C900        C  0.19573461  0.95265299  0.17508476    -0.05800
C901        C  0.19707169  0.97642500  0.19979141    -0.16600
C902        C  0.20982934  0.99912870  0.18113871     0.02300
C903        C  0.23501211  0.97159789  0.07175528     0.12300
C904        C  0.20793287  0.92358972  0.10915469     0.62900
H905        H  0.18625966  0.93542428  0.19003022     0.12300
C906        C  0.21121466  0.02567895  0.20547207     0.55000
H907        H  0.23207866  0.01365484  0.12445684     0.08100
C908        C  0.22279398  0.98011614  0.03156231    -0.05700
C909        C  0.23611964  0.97588548  0.99111487    -0.06500
C910        C  0.26124230  0.96388648  0.98998344    -0.16100
C911        C  0.27434704  0.95737265  0.03062946    -0.01600
C912        C  0.26083564  0.96135071  0.07107064    -0.09200
C913        C  0.19584780  0.99356888  0.03153568     0.65100
H914        H  0.22664262  0.98127263  0.95978850     0.10500
C915        C  0.30255178  0.94685333  0.03151838     0.63500
H916        H  0.27004024  0.95581885  0.10256681     0.07900
F917        F  0.21856554  0.04621989  0.17708060    -0.19600
F918        F  0.22973903  0.02429425  0.23965148    -0.15800
F919        F  0.18669339  0.03195653  0.22296065    -0.19300
F920        F  0.23356280  0.91420919  0.10554529    -0.22700
F921        F  0.19716008  0.92647042  0.06681816    -0.24100
F922        F  0.19322564  0.90457029  0.13175143    -0.18100
F923        F  0.31293600  0.94654153  0.07447852    -0.20600
F924        F  0.31861116  0.96297888  0.00555988    -0.21800
F925        F  0.30316993  0.92107569  0.01524519    -0.19000
F926        F  0.18710147  0.99932274  0.98862534    -0.19100
F927        F  0.19742469  0.01727302  0.05496295    -0.22900
F928        F  0.17726803  0.97719838  0.05150060    -0.24500
C929        C  0.26383876  0.98194434  0.53436489    -0.11300
C930        C  0.24934509  0.97527265  0.57246802     0.11300
C931        C  0.22206574  0.96910918  0.56887493    -0.03100
C932        C  0.21049821  0.96798325  0.52611878    -0.05800
C933        C  0.22527886  0.97331467  0.48749949    -0.16600
C934        C  0.25232748  0.98101264  0.49152630     0.02300
C935        C  0.26351123  0.97417825  0.61573392     0.12300
C936        C  0.20544368  0.96347709  0.61001096     0.62900
H937        H  0.18986380  0.96236948  0.52237522     0.12300
C938        C  0.26943651  0.98693888  0.45101199     0.55000
H939        H  0.28455751  0.98711018  0.53853602     0.08100
C940        C  0.27616866  0.95061572  0.63066380    -0.05700
C941        C  0.28712076  0.95023825  0.67389373    -0.06500
C942        C  0.28639834  0.97278084  0.70159162    -0.16100
C943        C  0.27573177  0.99704911  0.68494423    -0.01600
C944        C  0.26418435  0.99720524  0.64209406    -0.09200
C945        C  0.27837066  0.92618591  0.60085626     0.65100
H946        H  0.29572965  0.93204481  0.68689723     0.10500
C947        C  0.27700761  0.02277718  0.71161792     0.63500
H948        H  0.25505151  0.01518623  0.62909421     0.07900
F949        F  0.29556025  0.99184527  0.46284769    -0.19600
F950        F  0.25998677  0.00932136  0.42907446    -0.15800
F951        F  0.26909976  0.96538882  0.42218314    -0.19300
F952        F  0.20550745  0.98561199  0.63751713    -0.22700
F953        F  0.21571055  0.94199500  0.63330301    -0.24100
F954        F  0.17940388  0.95759461  0.59895607    -0.18100
F955        F  0.27054260  0.04470555  0.68554307    -0.20600
F956        F  0.30243557  0.02658602  0.72798996    -0.21800
F957        F  0.25941581  0.02169065  0.74680325    -0.19000
F958        F  0.29049701  0.90508695  0.62275728    -0.19100
F959        F  0.29331205  0.93246460  0.56369467    -0.22900
F960        F  0.25356887  0.91777143  0.58697794    -0.24500
C961        C  0.29944519  0.90542553  0.27696763    -0.11300
C962        C  0.30949056  0.88631176  0.30684992     0.11300
C963        C  0.29709700  0.88235874  0.34862527    -0.03100
C964        C  0.27434227  0.89726124  0.35856096    -0.05800
C965        C  0.26389280  0.91619544  0.32852469    -0.16600
C966        C  0.27662356  0.92039756  0.28679896     0.02300
C967        C  0.33359615  0.87125215  0.29411889     0.12300
C968        C  0.30801571  0.86262437  0.38268598     0.62900
H969        H  0.26463259  0.89443150  0.39042044     0.12300
C970        C  0.26582041  0.93976741  0.25206334     0.55000
H971        H  0.30969601  0.90842787  0.24563688     0.08100
C972        C  0.33258437  0.84891646  0.26538288    -0.05700
C973        C  0.35629292  0.83545065  0.25564060    -0.06500
C974        C  0.38095518  0.84377037  0.27314078    -0.16100
C975        C  0.38175401  0.86644292  0.30200096    -0.01600
C976        C  0.35794157  0.87977858  0.31152440    -0.09200
C977        C  0.30659888  0.83957609  0.24472641     0.65100
H978        H  0.35572373  0.81841435  0.23346953     0.10500
C979        C  0.40736113  0.87728129  0.32212494     0.63500
H980        H  0.35800941  0.89721421  0.33285256     0.07900
F981        F  0.27923957  0.93801124  0.21193723    -0.19600
F982        F  0.26833727  0.96566661  0.26738036    -0.15800
F983        F  0.23942304  0.93416829  0.24364991    -0.19300
F984        F  0.33281017  0.87083381  0.39698229    -0.22700
F985        F  0.31003146  0.83758515  0.36372980    -0.24100
F986        F  0.29193843  0.86054002  0.41986800    -0.18100
F987        F  0.40319537  0.90001665  0.34735347    -0.20600
F988        F  0.42487827  0.88390160  0.28845981    -0.21800
F989        F  0.41858575  0.85834858  0.35006901    -0.19000
F990        F  0.30985136  0.81692259  0.21894122    -0.19100
F991        F  0.29630772  0.85937907  0.21752268    -0.22900
F992        F  0.28858382  0.83372621  0.27798050    -0.24500
C993        C  0.34462551  0.38623143  0.39172445    -0.11300
C994        C  0.36719596  0.38225158  0.36529983     0.11300
C995        C  0.37467965  0.40203468  0.33388960    -0.03100
C996        C  0.35920347  0.42509037  0.32986974    -0.05800
C997        C  0.33704865  0.42973894  0.35698612    -0.16600
C998        C  0.32952391  0.40996040  0.38866066     0.02300
C999        C  0.38422709  0.35836483  0.37241396     0.12300
C1000       C  0.39943416  0.39925912  0.30538613     0.62900
H1001       H  0.36465474  0.44008807  0.30547890     0.12300
C1002       C  0.30653805  0.41423702  0.42030671     0.55000
H1003       H  0.33932733  0.37084039  0.41551285     0.08100
C1004       C  0.40485365  0.35868920  0.40466659    -0.05700
C1005       C  0.42682025  0.34195021  0.39823043    -0.06500
C1006       C  0.42810246  0.32452858  0.36162293    -0.16100
C1007       C  0.40546725  0.32092227  0.33416284    -0.01600
C1008       C  0.38361819  0.33802892  0.34015008    -0.09200
C1009       C  0.40426703  0.37769275  0.44409012     0.65100
H1010       H  0.44404862  0.34377371  0.41981277     0.10500
C1011       C  0.40524839  0.30043746  0.29695876     0.63500
H1012       H  0.36713854  0.33748210  0.31680321     0.07900
F1013       F  0.30994120  0.43799199  0.44316317    -0.19600
F1014       F  0.30462871  0.39393270  0.45159408    -0.15800
F1015       F  0.28302381  0.41502615  0.39639477    -0.19300
F1016       F  0.39685882  0.37764620  0.27708053    -0.22700
F1017       F  0.42143938  0.39574288  0.33250846    -0.24100
F1018       F  0.40387425  0.42163730  0.27924734    -0.18100
F1019       F  0.38114286  0.29979870  0.27463711    -0.20600
F1020       F  0.40982153  0.27538437  0.31483239    -0.21800
F1021       F  0.42481730  0.30633401  0.26628825    -0.19000
F1022       F  0.42595009  0.37423882  0.47207763    -0.19100
F1023       F  0.38166572  0.37304839  0.46884371    -0.22900
F1024       F  0.40422171  0.40383471  0.42923867    -0.24500
C1025       C  0.34771814  0.08077948  0.86292038    -0.11300
C1026       C  0.37538053  0.07927065  0.86082996     0.11300
C1027       C  0.38779542  0.05410078  0.85735420    -0.03100
C1028       C  0.37185747  0.03116145  0.85511684    -0.05800
C1029       C  0.34396045  0.03245282  0.85459089    -0.16600
C1030       C  0.33158335  0.05785682  0.85886602     0.02300
C1031       C  0.39105086  0.10431421  0.85788035     0.12300
C1032       C  0.41779789  0.05151686  0.85476936     0.62900
H1033       H  0.38130521  0.01185799  0.85272788     0.12300
C1034       C  0.30170476  0.06127574  0.85695106     0.55000
H1035       H  0.33887203  0.10035526  0.86583495     0.08100
C1036       C  0.39542850  0.11688006  0.81611850    -0.05700
C1037       C  0.41570492  0.13601506  0.81294887    -0.06500
C1038       C  0.43095327  0.14324646  0.85030017    -0.16100
C1039       C  0.42423151  0.13330778  0.89306864    -0.01600
C1040       C  0.40424988  0.11371824  0.89620900    -0.09200
C1041       C  0.37962242  0.10911946  0.77474331     0.65100
H1042       H  0.42106124  0.14415098  0.78064348     0.10500
C1043       C  0.43893947  0.14263460  0.93458135     0.63500
H1044       H  0.39995674  0.10439585  0.92806493     0.07900
F1045       F  0.29187631  0.05045858  0.81768870    -0.19600
F1046       F  0.29439151  0.08787644  0.85796321    -0.15800
F1047       F  0.29017751  0.04877050  0.89322684    -0.19300
F1048       F  0.42927231  0.06101479  0.89369651    -0.22700
F1049       F  0.42731419  0.06600036  0.81886861    -0.24100
F1050       F  0.42566832  0.02528108  0.84931419    -0.18100
F1051       F  0.42909552  0.13088019  0.97300786    -0.20600
F1052       F  0.43632857  0.16998708  0.93862371    -0.21800
F1053       F  0.46551218  0.13637445  0.93139555    -0.19000
F1054       F  0.38705976  0.12386854  0.73768584    -0.19100
F1055       F  0.35299362  0.11363294  0.78205015    -0.22900
F1056       F  0.38337279  0.08242633  0.76515351    -0.24500
C1057       C  0.51996360  0.22712186  0.06463931    -0.11300
C1058       C  0.50112650  0.24758083  0.06593215     0.11300
C1059       C  0.48653686  0.25415587  0.02707455    -0.03100
C1060       C  0.49082298  0.23929170  0.98802769    -0.05800
C1061       C  0.50956646  0.21850861  0.98633835    -0.16600
C1062       C  0.52454893  0.21229736  0.02551596     0.02300
C1063       C  0.49676813  0.26131815  0.10908223     0.12300
C1064       C  0.46683184  0.27703706  0.02680934     0.62900
H1065       H  0.47990481  0.24438606  0.95795095     0.12300
C1066       C  0.54502178  0.19008546  0.02686690     0.55000
H1067       H  0.53107223  0.22287304  0.09492177     0.08100
C1068       C  0.48056754  0.24997511  0.14243005    -0.05700
C1069       C  0.47856485  0.26307863  0.18363924    -0.06500
C1070       C  0.49335927  0.28623010  0.19356998    -0.16100
C1071       C  0.50879395  0.29819123  0.15926034    -0.01600
C1072       C  0.51008847  0.28540524  0.11735715    -0.09200
C1073       C  0.46675720  0.22327529  0.13555560     0.65100
H1074       H  0.46658332  0.25422897  0.20969009     0.10500
C1075       C  0.52477793  0.32349159  0.16695172     0.63500
H1076       H  0.52234245  0.29355596  0.09103171     0.07900
F1077       F  0.53398981  0.16664067  0.01091450    -0.19600
F1078       F  0.55412940  0.18524729  0.06990221    -0.15800
F1079       F  0.56663848  0.19707525  0.00114207    -0.19300
F1080       F  0.47994410  0.30074239  0.03535595    -0.22700
F1081       F  0.44784654  0.27301902  0.05925790    -0.24100
F1082       F  0.45397707  0.27946393  0.98598044    -0.18100
F1083       F  0.54317460  0.31937152  0.20069792    -0.20600
F1084       F  0.50801225  0.34409858  0.17857678    -0.21800
F1085       F  0.53838190  0.33129374  0.12902469    -0.19000
F1086       F  0.45003605  0.21708261  0.17061809    -0.19100
F1087       F  0.48548026  0.20328271  0.13253020    -0.22900
F1088       F  0.45176954  0.22368747  0.09673300    -0.24500
C1089       C  0.52555344  0.22665152  0.54374217    -0.11300
C1090       C  0.50010807  0.22784332  0.56188520     0.11300
C1091       C  0.47922455  0.23972554  0.53727832    -0.03100
C1092       C  0.48481597  0.25060126  0.49503774    -0.05800
C1093       C  0.51041001  0.24964492  0.47678615    -0.16600
C1094       C  0.53100824  0.23658210  0.50088282     0.02300
C1095       C  0.49647701  0.21766151  0.60787989     0.12300
C1096       C  0.45125596  0.24101480  0.55565271     0.62900
H1097       H  0.46923200  0.26043889  0.47624509     0.12300
C1098       C  0.55830029  0.23198037  0.48118669     0.55000
H1099       H  0.54123793  0.21783471  0.56372021     0.08100
C1100       C  0.49597911  0.19012386  0.61786412    -0.05700
C1101       C  0.49455958  0.18221911  0.66286948    -0.06500
C1102       C  0.49388639  0.20089118  0.69809782    -0.16100
C1103       C  0.49319542  0.22870170  0.68738246    -0.01600
C1104       C  0.49505014  0.23636875  0.64231466    -0.09200
C1105       C  0.49749232  0.16919919  0.58122744     0.65100
H1106       H  0.49473376  0.16114364  0.67076942     0.10500
C1107       C  0.49097280  0.25059800  0.72239468     0.63500
H1108       H  0.49593294  0.25729116  0.63331920     0.07900
F1109       F  0.57320008  0.21453239  0.50696336    -0.19600
F1110       F  0.57203869  0.25582274  0.47865281    -0.15800
F1111       F  0.55575473  0.22097352  0.43897344    -0.19300
F1112       F  0.45061983  0.25760467  0.59247171    -0.22700
F1113       F  0.44292008  0.21579307  0.56812070    -0.24100
F1114       F  0.43344772  0.25077465  0.52429134    -0.18100
F1115       F  0.48964745  0.27577301  0.70334858    -0.20600
F1116       F  0.51289459  0.25019462  0.75035064    -0.21800
F1117       F  0.46809757  0.24700831  0.74697105    -0.19000
F1118       F  0.49389741  0.14365268  0.59783599    -0.19100
F1119       F  0.52202788  0.17018376  0.56104146    -0.22900
F1120       F  0.47806442  0.17381806  0.54937364    -0.24500
C1121       C  0.83882482  0.88573830  0.70665277    -0.11300
C1122       C  0.86483196  0.88705200  0.69029847     0.11300
C1123       C  0.87357713  0.91050610  0.66843795    -0.03100
C1124       C  0.85702057  0.93297460  0.66832936    -0.05800
C1125       C  0.83192211  0.93264676  0.68849141    -0.16600
C1126       C  0.82193335  0.90821744  0.70561865     0.02300
C1127       C  0.88378433  0.86513934  0.70070268     0.12300
C1128       C  0.90066187  0.91203233  0.64652852     0.62900
H1129       H  0.86404466  0.95150998  0.65390496     0.12300
C1130       C  0.79409667  0.90612451  0.72406234     0.55000
H1131       H  0.83233467  0.86730988  0.72208913     0.08100
C1132       C  0.89849897  0.86524718  0.74118151    -0.05700
C1133       C  0.92020137  0.84795057  0.74545333    -0.06500
C1134       C  0.92795115  0.83103758  0.71052295    -0.16100
C1135       C  0.91198609  0.82931605  0.67151759    -0.01600
C1136       C  0.88980189  0.84633911  0.66748010    -0.09200
C1137       C  0.89226119  0.88463556  0.77872539     0.65100
H1138       H  0.93244520  0.84868530  0.77531780     0.10500
C1139       C  0.91924531  0.81082402  0.63348585     0.63500
H1140       H  0.87800267  0.84636635  0.63711529     0.07900
F1141       F  0.78856553  0.88069080  0.73960620    -0.19600
F1142       F  0.77598937  0.91206684  0.69060994    -0.15800
F1143       F  0.79100483  0.92377797  0.75912713    -0.19300
F1144       F  0.90218047  0.89320258  0.61293595    -0.22700
F1145       F  0.92041875  0.90722351  0.67772971    -0.24100
F1146       F  0.90533679  0.93682784  0.62763647    -0.18100
F1147       F  0.90170061  0.81299865  0.59790754    -0.20600
F1148       F  0.91880432  0.78469394  0.64838452    -0.21800
F1149       F  0.94434255  0.81693400  0.61816248    -0.19000
F1150       F  0.90907310  0.88133072  0.81508292    -0.19100
F1151       F  0.86661637  0.88060364  0.79322276    -0.22900
F1152       F  0.89489195  0.91062092  0.76375946    -0.24500
C1153       C  0.68558091  0.10322552  0.70957198    -0.11300
C1154       C  0.66792279  0.08963871  0.73732100     0.11300
C1155       C  0.67379228  0.06345463  0.75178870    -0.03100
C1156       C  0.69808501  0.05206575  0.73922846    -0.05800
C1157       C  0.71642204  0.06584186  0.71221090    -0.16600
C1158       C  0.70988340  0.09201908  0.69674901     0.02300
C1159       C  0.64377219  0.10393551  0.75171693     0.12300
C1160       C  0.65428204  0.04755843  0.77981879     0.62900
H1161       H  0.70287914  0.03212076  0.75055993     0.12300
C1162       C  0.72793550  0.10835689  0.66661608     0.55000
H1163       H  0.68020591  0.12312897  0.69870565     0.08100
C1164       C  0.64448265  0.12221203  0.78753383    -0.05700
C1165       C  0.62093783  0.13497589  0.79977553    -0.06500
C1166       C  0.59660611  0.13000158  0.77782658    -0.16100
C1167       C  0.59628174  0.11230226  0.74044093    -0.01600
C1168       C  0.62010789  0.09973019  0.72807862    -0.09200
C1169       C  0.67003155  0.12809273  0.81295360     0.65100
H1170       H  0.62145506  0.14881777  0.82747075     0.10500
C1171       C  0.57125240  0.10608170  0.71380583     0.63500
H1172       H  0.62050183  0.08609886  0.70004818     0.07900
F1173       F  0.75096140  0.11491486  0.68943401    -0.19600
F1174       F  0.71621661  0.13198826  0.65295086    -0.15800
F1175       F  0.73393485  0.09398013  0.62856705    -0.19300
F1176       F  0.63127872  0.04331247  0.75550473    -0.22700
F1177       F  0.64819494  0.06133031  0.81840225    -0.24100
F1178       F  0.66436929  0.02293457  0.79214370    -0.18100
F1179       F  0.56107832  0.12931843  0.69557736    -0.20600
F1180       F  0.55263144  0.09426513  0.74125571    -0.21800
F1181       F  0.57602762  0.08868477  0.67886177    -0.19000
F1182       F  0.66601695  0.14539724  0.84828266    -0.19100
F1183       F  0.68824843  0.13969364  0.78456774    -0.22900
F1184       F  0.68052104  0.10473839  0.83010404    -0.24500
C1185       C  0.63614776  0.88642349  0.18196957    -0.11300
C1186       C  0.60974297  0.88879294  0.16729907     0.11300
C1187       C  0.60084859  0.91353175  0.14978748    -0.03100
C1188       C  0.61749347  0.93584534  0.15335305    -0.05800
C1189       C  0.64282459  0.93416500  0.17268295    -0.16600
C1190       C  0.65317106  0.90879819  0.18414477     0.02300
C1191       C  0.59040920  0.86851398  0.18294296     0.12300
C1192       C  0.57359646  0.91797260  0.12928874     0.62900
H1193       H  0.61005731  0.95519358  0.14288425     0.12300
C1194       C  0.68139109  0.90566255  0.20092776     0.55000
H1195       H  0.64265928  0.86734473  0.19501773     0.08100
C1196       C  0.58328355  0.84543202  0.15849914    -0.05700
C1197       C  0.56182241  0.82969269  0.17373838    -0.06500
C1198       C  0.54760158  0.83663592  0.21239080    -0.16100
C1199       C  0.55655299  0.85859579  0.23860319    -0.01600
C1200       C  0.57763740  0.87417446  0.22308829    -0.09200
C1201       C  0.59763565  0.83834692  0.11582542     0.65100
H1202       H  0.55507560  0.81279660  0.15420577     0.10500
C1203       C  0.54370329  0.86646223  0.28235323     0.63500
H1204       H  0.58366968  0.89181493  0.24148761     0.07900
F1205       F  0.68734213  0.87932244  0.21062526    -0.19600
F1206       F  0.68513255  0.92055045  0.23935161    -0.15800
F1207       F  0.69877273  0.91435490  0.16839334    -0.19300
F1208       F  0.55982407  0.93621217  0.15478888    -0.22700
F1209       F  0.55865755  0.89492537  0.12610544    -0.24100
F1210       F  0.57651786  0.92819627  0.08658542    -0.18100
F1211       F  0.56059858  0.88179069  0.30848192    -0.20600
F1212       F  0.53735707  0.84397605  0.30664186    -0.21800
F1213       F  0.52103604  0.88111093  0.27390889    -0.19000
F1214       F  0.58783615  0.81510344  0.09697929    -0.19100
F1215       F  0.62427376  0.83472939  0.12496221    -0.22900
F1216       F  0.59480556  0.85873479  0.08494712    -0.24500
C1217       C  0.60679493  0.12872482  0.29400806    -0.11300
C1218       C  0.60944159  0.15148275  0.26714732     0.11300
C1219       C  0.62677030  0.15110585  0.23022099    -0.03100
C1220       C  0.63957385  0.12707334  0.21958480    -0.05800
C1221       C  0.63594932  0.10363439  0.24500620    -0.16600
C1222       C  0.61981399  0.10469635  0.28383169     0.02300
C1223       C  0.59472636  0.17583596  0.28011223     0.12300
C1224       C  0.63164980  0.17596592  0.20218497     0.62900
H1225       H  0.65202540  0.12630874  0.19028084     0.12300
C1226       C  0.61631960  0.08093574  0.31489429     0.55000
H1227       H  0.59400113  0.12989638  0.32288859     0.08100
C1228       C  0.56791193  0.17993619  0.26810907    -0.05700
C1229       C  0.55521850  0.20328109  0.28280126    -0.06500
C1230       C  0.56829498  0.22235700  0.30964138    -0.16100
C1231       C  0.59540873  0.21796297  0.32162169    -0.01600
C1232       C  0.60791931  0.19460438  0.30664435    -0.09200
C1233       C  0.55261141  0.15938466  0.24092491     0.65100
H1234       H  0.53469363  0.20659993  0.27373806     0.10500
C1235       C  0.61137858  0.23718516  0.35059426     0.63500
H1236       H  0.62834390  0.19059086  0.31563727     0.07900
F1237       F  0.60018580  0.06204698  0.29483775    -0.19600
F1238       F  0.60470235  0.08823151  0.35485952    -0.15800
F1239       F  0.64071678  0.06980599  0.32488196    -0.19300
F1240       F  0.64276403  0.19572041  0.22851923    -0.22700
F1241       F  0.60805366  0.18517102  0.18434585    -0.24100
F1242       F  0.64877234  0.17107551  0.16716720    -0.18100
F1243       F  0.63639130  0.22745958  0.36055327    -0.20600
F1244       F  0.59859099  0.24138371  0.39069590    -0.21800
F1245       F  0.61464132  0.26118531  0.32836321    -0.19000
F1246       F  0.52723980  0.16797757  0.23063168    -0.19100
F1247       F  0.55058443  0.13592608  0.26505332    -0.22900
F1248       F  0.56550398  0.15428001  0.20122709    -0.24500
C1249       C  0.57133414  0.07164042  0.05805987    -0.11300
C1250       C  0.56298675  0.05031515  0.03104107     0.11300
C1251       C  0.57292508  0.02433007  0.03927863    -0.03100
C1252       C  0.59217053  0.02098740  0.07299454    -0.05800
C1253       C  0.60134626  0.04268126  0.09834268    -0.16600
C1254       C  0.59018972  0.06829266  0.09198641     0.02300
C1255       C  0.54758488  0.05781455  0.99074096     0.12300
C1256       C  0.56424747  0.99974778  0.01353761     0.62900
H1257       H  0.60061825  0.00139052  0.07878964     0.12300
C1258       C  0.59796735  0.09203661  0.12092253     0.55000
H1259       H  0.56384224  0.09143489  0.05084461     0.08100
C1260       C  0.52437272  0.07346380  0.99429506    -0.05700
C1261       C  0.51824528  0.09132093  0.95974457    -0.06500
C1262       C  0.53398374  0.09297786  0.92151054    -0.16100
C1263       C  0.55469999  0.07445097  0.91490638    -0.01600
C1264       C  0.56115681  0.05693000  0.94996342    -0.09200
C1265       C  0.50694597  0.07357767  0.03536543     0.65100
H1266       H  0.50210158  0.10528019  0.96402080     0.10500
C1267       C  0.57163099  0.07513488  0.87314543     0.63500
H1268       H  0.57882527  0.04477859  0.94780100     0.07900
F1269       F  0.58212128  0.11402438  0.11250444    -0.19600
F1270       F  0.62389456  0.09938086  0.11270026    -0.15800
F1271       F  0.59528124  0.08539852  0.16556750    -0.19300
F1272       F  0.58543598  0.99010510  0.98937401    -0.22700
F1273       F  0.54343564  0.00463056  0.98442186    -0.24100
F1274       F  0.55613434  0.98029719  0.04338083    -0.18100
F1275       F  0.59008041  0.05473748  0.87278035    -0.20600
F1276       F  0.58512944  0.09910614  0.87101531    -0.21800
F1277       F  0.55572455  0.07242769  0.83561799    -0.19000
F1278       F  0.48087164  0.06956340  0.02250925    -0.19100
F1279       F  0.50901931  0.09804851  0.05642579    -0.22900
F1280       F  0.51366184  0.05370860  0.06551525    -0.24500
C1281       C  0.77539028  0.02103128  0.91280877    -0.11300
C1282       C  0.76072663  0.99862747  0.92604762     0.11300
C1283       C  0.75725575  0.97690754  0.89652508    -0.03100
C1284       C  0.76897046  0.97834737  0.85418359    -0.05800
C1285       C  0.78325452  0.00097311  0.84045160    -0.16600
C1286       C  0.78673722  0.02272740  0.87016186     0.02300
C1287       C  0.74736295  0.99973921  0.96971173     0.12300
C1288       C  0.74050717  0.95281876  0.90906440     0.62900
H1289       H  0.76623716  0.96214892  0.83065526     0.12300
C1290       C  0.80100687  0.04814787  0.85626936     0.55000
H1291       H  0.77718379  0.03755649  0.93593417     0.08100
C1292       C  0.76102977  0.99487041  0.01025784    -0.05700
C1293       C  0.74745094  0.99858388  0.05055228    -0.06500
C1294       C  0.72103507  0.00739944  0.05123433    -0.16100
C1295       C  0.70709485  0.01128157  0.01039243    -0.01600
C1296       C  0.72077686  0.00767428  0.97016845    -0.09200
C1297       C  0.78995602  0.98650778  0.01092213     0.65100
H1298       H  0.75778606  0.99569539  0.08203309     0.10500
C1299       C  0.67795275  0.01885860  0.00884550     0.63500
H1300       H  0.71096825  0.01159647  0.93850556     0.07900
F1301       F  0.82741704  0.04273651  0.84844453    -0.19600
F1302       F  0.79982654  0.06759398  0.88901414    -0.15800
F1303       F  0.78949375  0.05841114  0.81782192    -0.19300
F1304       F  0.71445954  0.96047080  0.91473894    -0.22700
F1305       F  0.74978455  0.94165930  0.94841958    -0.24100
F1306       F  0.74104976  0.93333722  0.87632972    -0.18100
F1307       F  0.67492312  0.04522430  0.02125521    -0.20600
F1308       F  0.66364555  0.00265517  0.03745198    -0.21800
F1309       F  0.66734033  0.01589040  0.96632228    -0.19000
F1310       F  0.79889695  0.98123693  0.05389611    -0.19100
F1311       F  0.80548891  0.00664597  0.99332682    -0.22900
F1312       F  0.79327557  0.96367453  0.98576987    -0.24500
C1313       C  0.73196192  0.97718480  0.49411466    -0.11300
C1314       C  0.71959987  0.99904690  0.47358087     0.11300
C1315       C  0.71888042  0.02388506  0.49576759    -0.03100
C1316       C  0.73230921  0.02649619  0.53681604    -0.05800
C1317       C  0.74610845  0.00506779  0.55658845    -0.16600
C1318       C  0.74543620  0.97966850  0.53534917     0.02300
C1319       C  0.71022950  0.99632571  0.42667489     0.12300
C1320       C  0.70412405  0.04754652  0.47584265     0.62900
H1321       H  0.73215347  0.04553839  0.55384908     0.12300
C1322       C  0.75957964  0.95548979  0.55472063     0.55000
H1323       H  0.73178018  0.95832367  0.47650980     0.08100
C1324       C  0.72794503  0.99986629  0.39070474    -0.05700
C1325       C  0.71772417  0.00019532  0.34701459    -0.06500
C1326       C  0.69058146  0.99658794  0.33806069    -0.16100
C1327       C  0.67308240  0.99118867  0.37395210    -0.01600
C1328       C  0.68330328  0.99133022  0.41800842    -0.09200
C1329       C  0.75753078  0.00358283  0.39854465     0.65100
H1330       H  0.73095108  0.00390494  0.31929377     0.10500
C1331       C  0.64408733  0.98456205  0.36585786     0.63500
H1332       H  0.67028546  0.98807149  0.44615936     0.07900
F1333       F  0.75876686  0.93393042  0.52585930    -0.19600
F1334       F  0.74760752  0.94775942  0.59415586    -0.15800
F1335       F  0.78591418  0.96157354  0.56281082    -0.19300
F1336       F  0.67753910  0.04129942  0.47150999    -0.22700
F1337       F  0.71416014  0.05378913  0.43418999    -0.24100
F1338       F  0.70626855  0.07002051  0.50246881    -0.18100
F1339       F  0.63180248  0.97590879  0.40455004    -0.20600
F1340       F  0.64194800  0.96442306  0.33443676    -0.21800
F1341       F  0.63078728  0.00690488  0.35060737    -0.19000
F1342       F  0.77114767  0.00681401  0.35886305    -0.19100
F1343       F  0.76777033  0.98140999  0.42000290    -0.22900
F1344       F  0.76208044  0.02586241  0.42469443    -0.24500
C1345       C  0.08553342  0.35080005  0.89771022    -0.11300
C1346       C  0.09735810  0.36153808  0.85920905     0.11300
C1347       C  0.08914266  0.35211905  0.81659263    -0.03100
C1348       C  0.06670985  0.33542397  0.81382579    -0.05800
C1349       C  0.05279222  0.32756042  0.85209196    -0.16600
C1350       C  0.06290756  0.33427165  0.89483461     0.02300
C1351       C  0.11393488  0.38618387  0.86369097     0.12300
C1352       C  0.10338470  0.36037488  0.77413359     0.62900
H1353       H  0.05887569  0.32960923  0.78146468     0.12300
C1354       C  0.04866903  0.32555005  0.93688773     0.55000
H1355       H  0.09270586  0.35743482  0.93003787     0.08100
C1356       C  0.10197537  0.41112721  0.87303898    -0.05700
C1357       C  0.11752095  0.43432241  0.87101366    -0.06500
C1358       C  0.14424955  0.43394632  0.85805295    -0.16100
C1359       C  0.15653389  0.40891160  0.85006559    -0.01600
C1360       C  0.14117199  0.38534089  0.85411675    -0.09200
C1361       C  0.07258363  0.41361087  0.88350452     0.65100
H1362       H  0.10847217  0.45337795  0.87829424     0.10500
C1363       C  0.18516719  0.40701382  0.83522115     0.63500
H1364       H  0.15005959  0.36606632  0.84810068     0.07900
F1365       F  0.02343749  0.33623657  0.93725370    -0.19600
F1366       F  0.06181635  0.33386928  0.97518190    -0.15800
F1367       F  0.04690628  0.29801925  0.93794897    -0.19300
F1368       F  0.12917024  0.35116468  0.77562516    -0.22700
F1369       F  0.10355360  0.38785174  0.76991160    -0.24100
F1370       F  0.09140238  0.34982887  0.73631343    -0.18100
F1371       F  0.19238587  0.38099599  0.82583655    -0.20600
F1372       F  0.20172247  0.41635210  0.86874192    -0.21800
F1373       F  0.18882773  0.42202990  0.79685712    -0.19000
F1374       F  0.06467739  0.43997937  0.88659327    -0.19100
F1375       F  0.06716573  0.40145527  0.92393871    -0.22900
F1376       F  0.05761119  0.40174893  0.85011541    -0.24500
C1377       C  0.87556947  0.19630466  0.78916018    -0.11300
C1378       C  0.88767141  0.17123410  0.79238659     0.11300
C1379       C  0.91419753  0.16949388  0.80787102    -0.03100
C1380       C  0.92735737  0.19301767  0.82144409    -0.05800
C1381       C  0.91509432  0.21819340  0.81933751    -0.16600
C1382       C  0.88876161  0.21992786  0.80211427     0.02300
C1383       C  0.87268229  0.14751180  0.77567541     0.12300
C1384       C  0.92868521  0.14295596  0.80934084     0.62900
H1385       H  0.94748649  0.19187554  0.83397530     0.12300
C1386       C  0.87470967  0.24649805  0.79589556     0.55000
H1387       H  0.85553902  0.19717309  0.77605015     0.08100
C1388       C  0.85421673  0.13334960  0.80233619    -0.05700
C1389       C  0.84102774  0.11102091  0.78380384    -0.06500
C1390       C  0.84503932  0.10318689  0.73927436    -0.16100
C1391       C  0.86310078  0.11780199  0.71241315    -0.01600
C1392       C  0.87650283  0.13981692  0.73115671    -0.09200
C1393       C  0.84824496  0.14202066  0.84984448     0.65100
H1394       H  0.82726679  0.09958626  0.80384937     0.10500
C1395       C  0.86895974  0.10964786  0.66459489     0.63500
H1396       H  0.89030516  0.15126347  0.71118220     0.07900
F1397       F  0.86822503  0.25700417  0.83710356    -0.19600
F1398       F  0.85149903  0.24381723  0.77137310    -0.15800
F1399       F  0.89092179  0.26416563  0.77321091    -0.19300
F1400       F  0.93068966  0.13272435  0.76661894    -0.22700
F1401       F  0.91506693  0.12498537  0.83574841    -0.24100
F1402       F  0.95405187  0.14556096  0.82670255    -0.18100
F1403       F  0.84646940  0.11259033  0.63846032    -0.20600
F1404       F  0.87705193  0.08332506  0.66364128    -0.21800
F1405       F  0.88886670  0.12504312  0.64594783    -0.19000
F1406       F  0.82999734  0.12532140  0.87010468    -0.19100
F1407       F  0.83792796  0.16754238  0.84948878    -0.22900
F1408       F  0.87113577  0.14183102  0.87540676    -0.24500
C1409       C  0.09054468  0.13355808  0.35579057    -0.11300
C1410       C  0.08758344  0.10659174  0.36753200     0.11300
C1411       C  0.06276707  0.09720897  0.38255611    -0.03100
C1412       C  0.04071360  0.11399323  0.37818788    -0.05800
C1413       C  0.04289021  0.14010018  0.36114760    -0.16600
C1414       C  0.06852942  0.15090086  0.35365274     0.02300
C1415       C  0.10941677  0.08760142  0.35833719     0.12300
C1416       C  0.05955513  0.06937018  0.40212533     0.62900
H1417       H  0.02125967  0.10644853  0.38672956     0.12300
C1418       C  0.07271709  0.18015695  0.34284273     0.55000
H1419       H  0.11004295  0.14055009  0.34635586     0.08100
C1420       C  0.11059950  0.07416332  0.31683794    -0.05700
C1421       C  0.12822540  0.05275593  0.31237835    -0.06500
C1422       C  0.14477768  0.04449545  0.34771027    -0.16100
C1423       C  0.14548621  0.05969455  0.38775793    -0.01600
C1424       C  0.12746893  0.08103913  0.39247790    -0.09200
C1425       C  0.09260488  0.08182805  0.27789889     0.65100
H1426       H  0.12845246  0.04148074  0.28151934     0.10500
C1427       C  0.16433012  0.05291746  0.42581499     0.63500
H1428       H  0.12651613  0.09206763  0.42352140     0.07900
F1429       F  0.05946320  0.18677840  0.30392813    -0.19600
F1430       F  0.09926170  0.18623750  0.33720951    -0.15800
F1431       F  0.06328962  0.19556972  0.37757284    -0.19300
F1432       F  0.07574367  0.06679599  0.43934509    -0.22700
F1433       F  0.06643708  0.05025544  0.37106927    -0.24100
F1434       F  0.03373479  0.06443128  0.41521792    -0.18100
F1435       F  0.16113462  0.06979968  0.46196213    -0.20600
F1436       F  0.19019227  0.05536967  0.41133878    -0.21800
F1437       F  0.15991798  0.02707521  0.44026048    -0.19000
F1438       F  0.09749974  0.06661108  0.24027105    -0.19100
F1439       F  0.09668336  0.10830047  0.26680385    -0.22900
F1440       F  0.06635394  0.07820536  0.28937261    -0.24500
C1441       C  0.79943324  0.08890000  0.20137979    -0.11300
C1442       C  0.80568382  0.08874560  0.24707247     0.11300
C1443       C  0.78874048  0.07558569  0.27762436    -0.03100
C1444       C  0.76641549  0.06194134  0.26084418    -0.05800
C1445       C  0.76012032  0.06208903  0.21507587    -0.16600
C1446       C  0.77682626  0.07578501  0.18462755     0.02300
C1447       C  0.82993407  0.10308113  0.26185751     0.12300
C1448       C  0.79399638  0.07634817  0.32767677     0.62900
H1449       H  0.75323338  0.05159814  0.28352364     0.12300
C1450       C  0.77122488  0.07616420  0.13462224     0.55000
H1451       H  0.81246277  0.09959841  0.17892045     0.08100
C1452       C  0.85533071  0.09149109  0.25858159    -0.05700
C1453       C  0.87737340  0.10618059  0.27361720    -0.06500
C1454       C  0.87486642  0.13184827  0.29228011    -0.16100
C1455       C  0.84923475  0.14356150  0.29482518    -0.01600
C1456       C  0.82729130  0.12900473  0.27862902    -0.09200
C1457       C  0.85908884  0.06362099  0.23966924     0.65100
H1458       H  0.89683868  0.09723477  0.27198879     0.10500
C1459       C  0.84466481  0.17109005  0.31451252     0.63500
H1460       H  0.80759387  0.13748141  0.27990906     0.07900
F1461       F  0.76753275  0.05040584  0.11923236    -0.19600
F1462       F  0.79193103  0.08738883  0.11088425    -0.15800
F1463       F  0.74874822  0.09102973  0.12583278    -0.19300
F1464       F  0.79329478  0.10240030  0.34263461    -0.22700
F1465       F  0.81859669  0.06561754  0.33718736    -0.24100
F1466       F  0.77519723  0.06205461  0.35122960    -0.18100
F1467       F  0.81894707  0.17977962  0.30747953    -0.20600
F1468       F  0.86152828  0.18942510  0.29490390    -0.21800
F1469       F  0.84907630  0.17043133  0.36019228    -0.19000
F1470       F  0.88532620  0.05566399  0.24143441    -0.19100
F1471       F  0.85097910  0.06303053  0.19546005    -0.22900
F1472       F  0.84432256  0.04540165  0.26379322    -0.24500
C1473       C  0.93248019  0.08518910  0.51773963    -0.11300
C1474       C  0.92596745  0.05987876  0.50087408     0.11300
C1475       C  0.93009802  0.05429440  0.45509798    -0.03100
C1476       C  0.93685868  0.07540591  0.42656335    -0.05800
C1477       C  0.94056652  0.10145340  0.44283202    -0.16600
C1478       C  0.94046718  0.10601083  0.48960483     0.02300
C1479       C  0.90912245  0.04289726  0.52958440     0.12300
C1480       C  0.92630871  0.02686752  0.43467578     0.62900
H1481       H  0.93789904  0.07167038  0.39091094     0.12300
C1482       C  0.94707440  0.13292193  0.51016648     0.55000
H1483       H  0.92918292  0.08929574  0.55282277     0.08100
C1484       C  0.91600706  0.03692622  0.57442385    -0.05700
C1485       C  0.89565212  0.03127328  0.60461866    -0.06500
C1486       C  0.86905281  0.03002113  0.59058804    -0.16100
C1487       C  0.86314044  0.03038964  0.54418011    -0.01600
C1488       C  0.88307490  0.03833429  0.51471222    -0.09200
C1489       C  0.94415746  0.03764216  0.59231062     0.65100
H1490       H  0.90056396  0.02941427  0.63982856     0.10500
C1491       C  0.83605829  0.02382899  0.52469470     0.63500
H1492       H  0.87784512  0.04248492  0.48019948     0.07900
F1493       F  0.95380141  0.13036386  0.55493581    -0.19600
F1494       F  0.92533341  0.14955929  0.50693676    -0.15800
F1495       F  0.96843035  0.14444426  0.48860128    -0.19300
F1496       F  0.90386845  0.02688473  0.40789209    -0.22700
F1497       F  0.92387121  0.00706661  0.46668330    -0.24100
F1498       F  0.94799348  0.02074981  0.40858487    -0.18100
F1499       F  0.83883224  0.01076588  0.48423824    -0.20600
F1500       F  0.82202944  0.04713093  0.51754744    -0.21800
F1501       F  0.82180388  0.00709918  0.55247952    -0.19000
F1502       F  0.94949952  0.01395323  0.61437767    -0.19100
F1503       F  0.94684007  0.05849883  0.62222651    -0.22900
F1504       F  0.96270810  0.04062276  0.55881854    -0.24500
C1505       C  0.00189214  0.21225721  0.13629302    -0.11300
C1506       C  0.97949308  0.20848768  0.10935771     0.11300
C1507       C  0.95808083  0.19282118  0.12476149    -0.03100
C1508       C  0.95874707  0.18358873  0.16914786    -0.05800
C1509       C  0.98028385  0.18928878  0.19757886    -0.16600
C1510       C  0.00279244  0.20273822  0.18035902     0.02300
C1511       C  0.97851374  0.22262596  0.06614945     0.12300
C1512       C  0.93471465  0.18614878  0.09448649     0.62900
H1513       H  0.94200633  0.17267457  0.18247657     0.12300
C1514       C  0.02793556  0.20636708  0.20767811     0.55000
H1515       H  0.01831938  0.22364949  0.12293190     0.08100
C1516       C  0.96974503  0.24931051  0.06338430    -0.05700
C1517       C  0.96855959  0.26149602  0.02122452    -0.06500
C1518       C  0.97628324  0.24805835  0.98230299    -0.16100
C1519       C  0.98605137  0.22156047  0.98545336    -0.01600
C1520       C  0.98706269  0.20929475  0.02778340    -0.09200
C1521       C  0.96168570  0.26486697  0.10477566     0.65100
H1522       H  0.96143078  0.28139268  0.01827819     0.10500
C1523       C  0.99442803  0.20586353  0.94452775     0.63500
H1524       H  0.99420750  0.18909812  0.03135245     0.07900
F1525       F  0.02402481  0.22500487  0.24098249    -0.19600
F1526       F  0.04882508  0.21507176  0.18159335    -0.15800
F1527       F  0.03504270  0.18218097  0.22644650    -0.19300
F1528       F  0.94351134  0.17206902  0.05776847    -0.22700
F1529       F  0.92247165  0.20925793  0.07994262    -0.24100
F1530       F  0.91600974  0.17066844  0.11618753    -0.18100
F1531       F  0.00092322  0.17977126  0.95511644    -0.20600
F1532       F  0.01646425  0.21766832  0.92557638    -0.21800
F1533       F  0.97395469  0.20521640  0.91358340    -0.19000
F1534       F  0.95281809  0.29022523  0.09421135    -0.19100
F1535       F  0.98316660  0.26744115  0.13333959    -0.22900
F1536       F  0.94150793  0.25173054  0.12683951    -0.24500
C1537       C  0.99323750  0.25717609  0.53263032    -0.11300
C1538       C  0.97776692  0.24885293  0.56870726     0.11300
C1539       C  0.95929745  0.22786895  0.56318492    -0.03100
C1540       C  0.95708506  0.21568796  0.52111839    -0.05800
C1541       C  0.97237986  0.22398406  0.48436807    -0.16600
C1542       C  0.99108918  0.24508411  0.49032385     0.02300
C1543       C  0.98111609  0.26271888  0.61201560     0.12300
C1544       C  0.94175290  0.21861516  0.60141769     0.62900
H1545       H  0.94293019  0.19968476  0.51653568     0.12300
C1546       C  0.00837632  0.25548653  0.45259349     0.55000
H1547       H  0.00702104  0.27345107  0.53808443     0.08100
C1548       C  0.00141265  0.25564890  0.64246105    -0.05700
C1549       C  0.00175665  0.26776201  0.68471395    -0.06500
C1550       C  0.98244340  0.28644883  0.69741570    -0.16100
C1551       C  0.96299146  0.29464365  0.66568398    -0.01600
C1552       C  0.96299436  0.28274465  0.62308745    -0.09200
C1553       C  0.02230407  0.23508844  0.63058175     0.65100
H1554       H  0.01678621  0.26206019  0.70888398     0.10500
C1555       C  0.94150945  0.31468390  0.67700297     0.63500
H1556       H  0.94811915  0.28815368  0.59845273     0.07900
F1557       F  0.02545584  0.23565048  0.43873583    -0.19600
F1558       F  0.02368324  0.27708131  0.46576451    -0.15800
F1559       F  0.99266144  0.26370195  0.41710524    -0.19300
F1560       F  0.92539758  0.23919622  0.61457707    -0.22700
F1561       F  0.95718409  0.21073378  0.63740480    -0.24100
F1562       F  0.92585167  0.19725587  0.58921090    -0.18100
F1563       F  0.95287927  0.33915653  0.68658151    -0.20600
F1564       F  0.92722900  0.30582227  0.71349275    -0.21800
F1565       F  0.92387497  0.31833110  0.64187464    -0.19000
F1566       F  0.03944378  0.23017458  0.66595676    -0.19100
F1567       F  0.03711502  0.24421758  0.59495107    -0.22900
F1568       F  0.01038021  0.21121430  0.61893766    -0.24500
C1569       C  0.86866005  0.57904674  0.23669653    -0.11300
C1570       C  0.86346861  0.59558377  0.19998527     0.11300
C1571       C  0.84244269  0.58910684  0.17034398    -0.03100
C1572       C  0.82843183  0.56493471  0.17686168    -0.05800
C1573       C  0.83497703  0.54735068  0.21198130    -0.16600
C1574       C  0.85465137  0.55522735  0.24375454     0.02300
C1575       C  0.88245773  0.61791125  0.19246412     0.12300
C1576       C  0.83480764  0.60781827  0.13254351     0.62900
H1577       H  0.81299580  0.55911482  0.15352054     0.12300
C1578       C  0.86139340  0.53870127  0.28503455     0.55000
H1579       H  0.88473018  0.58450567  0.25910021     0.08100
C1580       C  0.88535202  0.63919547  0.22339123    -0.05700
C1581       C  0.90953097  0.65325123  0.22520057    -0.06500
C1582       C  0.93055358  0.64682510  0.19680917    -0.16100
C1583       C  0.92647996  0.62782736  0.16238802    -0.01600
C1584       C  0.90252114  0.61347420  0.16109890    -0.09200
C1585       C  0.86417063  0.64683437  0.25666725     0.65100
H1586       H  0.91256852  0.66819655  0.25091979     0.10500
C1587       C  0.94783133  0.62175148  0.12841953     0.63500
H1588       H  0.90035296  0.59693085  0.13809002     0.07900
F1589       F  0.87570507  0.55336604  0.31612653    -0.19600
F1590       F  0.87658378  0.51695568  0.27307050    -0.15800
F1591       F  0.83844484  0.53006890  0.30564705    -0.19300
F1592       F  0.85524554  0.60975453  0.10218213    -0.22700
F1593       F  0.82957221  0.63286511  0.14965010    -0.24100
F1594       F  0.81241345  0.59903154  0.10997700    -0.18100
F1595       F  0.93783994  0.60739129  0.09255656    -0.20600
F1596       F  0.96773743  0.60690954  0.14823612    -0.21800
F1597       F  0.95832198  0.64530688  0.11200765    -0.19000
F1598       F  0.85931877  0.67392575  0.25337351    -0.19100
F1599       F  0.87301544  0.64114141  0.29948674    -0.22900
F1600       F  0.84047072  0.63360792  0.24939698    -0.24500
C1601       C  0.61620238  0.39251661  0.25859498    -0.11300
C1602       C  0.63977243  0.37804122  0.25478310     0.11300
C1603       C  0.64001098  0.35045697  0.26500335    -0.03100
C1604       C  0.61618570  0.33810834  0.27792416    -0.05800
C1605       C  0.59254717  0.35261046  0.28252886    -0.16600
C1606       C  0.59251731  0.38041179  0.27287834     0.02300
C1607       C  0.66435195  0.39296249  0.24392616     0.12300
C1608       C  0.66552293  0.33441643  0.26419856     0.62900
H1609       H  0.61603092  0.31705283  0.28614001     0.12300
C1610       C  0.56820084  0.39767427  0.28008009     0.55000
H1611       H  0.61679486  0.41370893  0.25149756     0.08100
C1612       C  0.67213216  0.39816724  0.19936644    -0.05700
C1613       C  0.69625398  0.41160335  0.19205495    -0.06500
C1614       C  0.71184153  0.42102834  0.22776286    -0.16100
C1615       C  0.70319571  0.41726574  0.27219257    -0.01600
C1616       C  0.67955422  0.40301834  0.27956121    -0.09200
C1617       C  0.65478471  0.39006186  0.15995085     0.65100
H1618       H  0.70310985  0.41506188  0.15827653     0.10500
C1619       C  0.71914447  0.42778061  0.31148840     0.63500
H1620       H  0.67269767  0.39948473  0.31331103     0.07900
F1621       F  0.57358482  0.42449069  0.27344607    -0.19600
F1622       F  0.55928249  0.39463961  0.32344882    -0.15800
F1623       F  0.54838730  0.39038675  0.25037868    -0.19300
F1624       F  0.68317529  0.34455735  0.29536578    -0.22700
F1625       F  0.67686661  0.33574087  0.22233836    -0.24100
F1626       F  0.66119366  0.30779139  0.27430113    -0.18100
F1627       F  0.72047253  0.45531373  0.30935387    -0.20600
F1628       F  0.74448322  0.41743498  0.31044038    -0.21800
F1629       F  0.70783494  0.42073941  0.35185013    -0.19000
F1630       F  0.66604559  0.39713566  0.11951264    -0.19100
F1631       F  0.63049499  0.40260408  0.16287162    -0.22900
F1632       F  0.65085095  0.36277932  0.15994037    -0.24500
C1633       C  0.84487021  0.32633857  0.26918129    -0.11300
C1634       C  0.86892196  0.32949979  0.29210234     0.11300
C1635       C  0.87829304  0.35535211  0.30224511    -0.03100
C1636       C  0.86326103  0.37741301  0.28814594    -0.05800
C1637       C  0.83945510  0.37459903  0.26344359    -0.16600
C1638       C  0.82959501  0.34833602  0.25513001     0.02300
C1639       C  0.88409245  0.30518573  0.30421922     0.12300
C1640       C  0.90443888  0.35963165  0.32679400     0.62900
H1641       H  0.87074981  0.39721106  0.29516387     0.12300
C1642       C  0.80336978  0.34297920  0.23145779     0.55000
H1643       H  0.83836737  0.30621215  0.26178406     0.08100
C1644       C  0.87738381  0.28941078  0.34170118    -0.05700
C1645       C  0.89251644  0.26655159  0.35092745    -0.06500
C1646       C  0.91387976  0.25886036  0.32382065    -0.16100
C1647       C  0.92034098  0.27457544  0.28578459    -0.01600
C1648       C  0.90508737  0.29748123  0.27660568    -0.09200
C1649       C  0.85422644  0.29659572  0.37162031     0.65100
H1650       H  0.88772679  0.25441471  0.37977558     0.10500
C1651       C  0.94259674  0.26703058  0.25425627     0.63500
H1652       H  0.90942584  0.30972841  0.24767109     0.07900
F1653       F  0.78320229  0.35641223  0.25292945    -0.19600
F1654       F  0.79686822  0.31612057  0.23155738    -0.15800
F1655       F  0.80480874  0.35114463  0.18733048    -0.19300
F1656       F  0.92509059  0.35042353  0.30096336    -0.22700
F1657       F  0.90437408  0.34599927  0.36701289    -0.24100
F1658       F  0.90906124  0.38632704  0.33585339    -0.18100
F1659       F  0.94315530  0.28330188  0.21679616    -0.20600
F1660       F  0.93925386  0.24100750  0.23991940    -0.21800
F1661       F  0.96675744  0.26952936  0.27589569    -0.19000
F1662       F  0.85206657  0.27936553  0.40766097    -0.19100
F1663       F  0.83082267  0.29531000  0.34749058    -0.22900
F1664       F  0.85742670  0.32214622  0.38812517    -0.24500
C1665       C  0.91305107  0.43609977  0.07387212    -0.11300
C1666       C  0.90417696  0.42004317  0.03851342     0.11300
C1667       C  0.87720969  0.41252150  0.03581779    -0.03100
C1668       C  0.85995301  0.42149326  0.06895080    -0.05800
C1669       C  0.86877853  0.43619065  0.10639727    -0.16600
C1670       C  0.89591244  0.44421413  0.10842382     0.02300
C1671       C  0.92393791  0.40722222  0.00932196     0.12300
C1672       C  0.86689782  0.39349675  0.99988940     0.62900
H1673       H  0.83936569  0.41565389  0.06674312     0.12300
C1674       C  0.90730522  0.46022820  0.14715716     0.55000
H1675       H  0.93393957  0.44102510  0.07526662     0.08100
C1676       C  0.92953985  0.41638486  0.96566454    -0.05700
C1677       C  0.94147662  0.39851568  0.93545926    -0.06500
C1678       C  0.94826645  0.37243206  0.94874975    -0.16100
C1679       C  0.94711082  0.36561796  0.99472222    -0.01600
C1680       C  0.93429713  0.38291584  0.02408579    -0.09200
C1681       C  0.92277428  0.44467129  0.95151177     0.65100
H1682       H  0.94367567  0.40410886  0.90072142     0.10500
C1683       C  0.95650926  0.33917346  0.01318969     0.63500
H1684       H  0.93067060  0.37657834  0.05821544     0.07900
F1685       F  0.93403547  0.46551660  0.14175169    -0.19600
F1686       F  0.90446205  0.44609839  0.18663753    -0.15800
F1687       F  0.89437792  0.48445317  0.15023755    -0.19300
F1688       F  0.87942195  0.36910286  0.00384059    -0.22700
F1689       F  0.87158101  0.40375810  0.95779980    -0.24100
F1690       F  0.83989748  0.38908152  0.00342876    -0.18100
F1691       F  0.96820375  0.34282126  0.05472438    -0.20600
F1692       F  0.97512937  0.32743318  0.98581852    -0.21800
F1693       F  0.93488450  0.32242348  0.01771381    -0.19000
F1694       F  0.92965835  0.44952502  0.90750209    -0.19100
F1695       F  0.93652171  0.46239780  0.97842368    -0.22900
F1696       F  0.89596786  0.44945498  0.95587622    -0.24500
C1697       C  0.64230135  0.58751664  0.71242961    -0.11300
C1698       C  0.61656688  0.58719986  0.69440927     0.11300
C1699       C  0.60704380  0.56389902  0.67289546    -0.03100
C1700       C  0.62271138  0.54081986  0.67410880    -0.05800
C1701       C  0.64716797  0.54012014  0.69676263    -0.16600
C1702       C  0.65777728  0.56412171  0.71471129     0.02300
C1703       C  0.59810954  0.60925933  0.70551529     0.12300
C1704       C  0.57982281  0.56297880  0.65081377     0.62900
H1705       H  0.61523570  0.52252857  0.65943875     0.12300
C1706       C  0.68433983  0.56474839  0.73879057     0.55000
H1707       H  0.64930968  0.60579283  0.72774431     0.08100
C1708       C  0.58517808  0.60962838  0.74742266    -0.05700
C1709       C  0.56283686  0.62588156  0.75242228    -0.06500
C1710       C  0.55320524  0.64175809  0.71730240    -0.16100
C1711       C  0.56785131  0.64374280  0.67714141    -0.01600
C1712       C  0.59032172  0.62731477  0.67194250    -0.09200
C1713       C  0.59411030  0.59196592  0.78607175     0.65100
H1714       H  0.55175699  0.62530434  0.78332348     0.10500
C1715       C  0.55906273  0.66197310  0.63936166     0.63500
H1716       H  0.60099281  0.62718961  0.64064884     0.07900
F1717       F  0.68419295  0.54687183  0.77411400    -0.19600
F1718       F  0.69006047  0.58978895  0.75581128    -0.15800
F1719       F  0.70425329  0.55803251  0.70935696    -0.19300
F1720       F  0.57875441  0.58127484  0.61621091    -0.22700
F1721       F  0.56044014  0.56894827  0.68168525    -0.24100
F1722       F  0.57416743  0.53806231  0.63321929    -0.18100
F1723       F  0.57560739  0.66015482  0.60273593    -0.20600
F1724       F  0.55929012  0.68813855  0.65389899    -0.21800
F1725       F  0.53373095  0.65526109  0.62567138    -0.19000
F1726       F  0.57816467  0.59494732  0.82322210    -0.19100
F1727       F  0.61968864  0.59865234  0.79851752    -0.22900
F1728       F  0.59328968  0.56543157  0.77355603    -0.24500
C1729       C  0.63840473  0.32511921  0.79305834    -0.11300
C1730       C  0.61064511  0.32413425  0.79521820     0.11300
C1731       C  0.59562687  0.34703537  0.78402319    -0.03100
C1732       C  0.60897666  0.36994786  0.76900609    -0.05800
C1733       C  0.63663193  0.37055559  0.76442500    -0.16600
C1734       C  0.65178703  0.34799451  0.77735300     0.02300
C1735       C  0.59752225  0.29863484  0.80768519     0.12300
C1736       C  0.56557938  0.34710177  0.78723960     0.62900
H1737       H  0.59776123  0.38745900  0.75932352     0.12300
C1738       C  0.68184213  0.34821190  0.77537888     0.55000
H1739       H  0.64945418  0.30750372  0.80271080     0.08100
C1740       C  0.59309576  0.27812913  0.77589576    -0.05700
C1741       C  0.57788519  0.25580686  0.78844761    -0.06500
C1742       C  0.56739150  0.25347807  0.83152694    -0.16100
C1743       C  0.57285423  0.27328197  0.86391835    -0.01600
C1744       C  0.58799654  0.29566403  0.85140306    -0.09200
C1745       C  0.60440221  0.27987046  0.72902327     0.65100
H1746       H  0.57396966  0.23996934  0.76469497     0.10500
C1747       C  0.56275713  0.27053015  0.91141275     0.63500
H1748       H  0.59206798  0.31134628  0.87535744     0.07900
F1749       F  0.69004992  0.34927914  0.73140471    -0.19600
F1750       F  0.69265639  0.32555714  0.79469004    -0.15800
F1751       F  0.69161571  0.37017075  0.79812833    -0.19300
F1752       F  0.55810290  0.34349966  0.83122516    -0.22700
F1753       F  0.55500679  0.32675988  0.76150827    -0.24100
F1754       F  0.55480619  0.37092050  0.77236383    -0.18100
F1755       F  0.57094650  0.29152871  0.93817198    -0.20600
F1756       F  0.57217881  0.24711434  0.93013694    -0.21800
F1757       F  0.53536491  0.26995432  0.91113683    -0.19000
F1758       F  0.59688094  0.25829848  0.70299599    -0.19100
F1759       F  0.63176162  0.28027386  0.73130350    -0.22900
F1760       F  0.59565233  0.30284540  0.70802498    -0.24500
C1761       C  0.59155306  0.42545947  0.52972725    -0.11300
C1762       C  0.56579133  0.42051191  0.54506285     0.11300
C1763       C  0.56008830  0.42413085  0.59097120    -0.03100
C1764       C  0.58099077  0.43006830  0.62054161    -0.05800
C1765       C  0.60722139  0.43301738  0.60573241    -0.16600
C1766       C  0.61241475  0.43196764  0.55904954     0.02300
C1767       C  0.54766101  0.40634023  0.51374063     0.12300
C1768       C  0.53262878  0.42121999  0.61071661     0.62900
H1769       H  0.57680538  0.43137283  0.65598523     0.12300
C1770       C  0.63977283  0.43684485  0.53966596     0.55000
H1771       H  0.59566561  0.42233571  0.49462503     0.08100
C1772       C  0.54190204  0.41600837  0.47014881    -0.05700
C1773       C  0.53387436  0.39773717  0.43710186    -0.06500
C1774       C  0.53031768  0.37059869  0.44711896    -0.16100
C1775       C  0.53142409  0.36211386  0.49240424    -0.01600
C1776       C  0.54114104  0.37991139  0.52464577    -0.09200
C1777       C  0.54503061  0.44499264  0.45660841     0.65100
H1778       H  0.53189426  0.40450740  0.40279240     0.10500
C1779       C  0.52435938  0.33395011  0.50697963     0.63500
H1780       H  0.54534506  0.37262102  0.55808943     0.07900
F1781       F  0.65081107  0.45961238  0.55815142    -0.19600
F1782       F  0.63874668  0.44046168  0.49375391    -0.15800
F1783       F  0.65590229  0.41514993  0.54829881    -0.19300
F1784       F  0.53200229  0.39892483  0.63803470    -0.22700
F1785       F  0.51300346  0.41886425  0.57851218    -0.24100
F1786       F  0.52698832  0.44349713  0.63615734    -0.18100
F1787       F  0.54637276  0.31770587  0.50377214    -0.20600
F1788       F  0.50405003  0.32370683  0.48081092    -0.21800
F1789       F  0.51582737  0.33370923  0.55089823    -0.19000
F1790       F  0.52211447  0.45349107  0.43537401    -0.19100
F1791       F  0.56597713  0.44744718  0.42728803    -0.22900
F1792       F  0.54944418  0.46155625  0.49284351    -0.24500
C1793       C  0.85729324  0.38468329  0.77101229    -0.11300
C1794       C  0.83394262  0.36966398  0.77255090     0.11300
C1795       C  0.83486935  0.34239088  0.78460580    -0.03100
C1796       C  0.85947259  0.33118032  0.79606299    -0.05800
C1797       C  0.88293157  0.34638723  0.79622936    -0.16600
C1798       C  0.88184797  0.37380314  0.78365615     0.02300
C1799       C  0.80885894  0.38307974  0.76021957     0.12300
C1800       C  0.80996122  0.32531693  0.78585198     0.62900
H1801       H  0.86050879  0.31035917  0.80558186     0.12300
C1802       C  0.90593770  0.39206942  0.78548261     0.55000
H1803       H  0.85593083  0.40533548  0.76053053     0.08100
C1804       C  0.79572609  0.40070130  0.78965838    -0.05700
C1805       C  0.77222185  0.41301151  0.77494107    -0.06500
C1806       C  0.76149520  0.40774770  0.73247411    -0.16100
C1807       C  0.77470828  0.39005654  0.70312315    -0.01600
C1808       C  0.79855512  0.37842253  0.71741117    -0.09200
C1809       C  0.80644190  0.40639933  0.83628972     0.65100
H1810       H  0.76187425  0.42673057  0.79661824     0.10500
C1811       C  0.76406263  0.38377403  0.65664247     0.63500
H1812       H  0.80935318  0.36528182  0.69537333     0.07900
F1813       F  0.89941662  0.41839324  0.77667318    -0.19600
F1814       F  0.92426497  0.38422194  0.75398435    -0.15800
F1815       F  0.91724510  0.39115247  0.82769247    -0.19300
F1816       F  0.79955762  0.32274431  0.74322652    -0.22700
F1817       F  0.79128993  0.33702586  0.81312272    -0.24100
F1818       F  0.81501658  0.29995997  0.80220837    -0.18100
F1819       F  0.78171993  0.36870048  0.63210174    -0.20600
F1820       F  0.75937482  0.40718626  0.63336581    -0.21800
F1821       F  0.74075942  0.36937346  0.65999281    -0.19000
F1822       F  0.78942167  0.42235108  0.86056543    -0.19100
F1823       F  0.83052508  0.41944064  0.83346232    -0.22900
F1824       F  0.80983846  0.38276149  0.85951612    -0.24500
C1825       C  0.69241443  0.46267241  0.93470421    -0.11300
C1826       C  0.71146329  0.48223715  0.94460422     0.11300
C1827       C  0.71958136  0.50033946  0.91105479    -0.03100
C1828       C  0.70863820  0.49778956  0.86799165    -0.05800
C1829       C  0.69056034  0.47734668  0.85714789    -0.16600
C1830       C  0.68173434  0.45978180  0.89133005     0.02300
C1831       C  0.72539081  0.48067752  0.98828496     0.12300
C1832       C  0.74047835  0.52158705  0.92024981     0.62900
H1833       H  0.71504626  0.51117983  0.84170660     0.12300
C1834       C  0.66233080  0.43724095  0.88189054     0.55000
H1835       H  0.68690089  0.44886799  0.96097331     0.08100
C1836       C  0.71521912  0.49201356  0.02782979    -0.05700
C1837       C  0.72977651  0.48904730  0.06785218    -0.06500
C1838       C  0.75335956  0.47413377  0.06966244    -0.16100
C1839       C  0.76346729  0.46281187  0.02962312    -0.01600
C1840       C  0.74916379  0.46638209  0.98967725    -0.09200
C1841       C  0.68851580  0.50589562  0.02815118     0.65100
H1842       H  0.72198664  0.49709764  0.09865335     0.10500
C1843       C  0.78912494  0.44696185  0.02838783     0.63500
H1844       H  0.75616930  0.45751304  0.95893102     0.07900
F1845       F  0.65811986  0.42146804  0.91925299    -0.19600
F1846       F  0.67205417  0.42104490  0.84840813    -0.15800
F1847       F  0.63816037  0.44768527  0.86879505    -0.19300
F1848       F  0.76428318  0.50970904  0.93155103    -0.22700
F1849       F  0.73254950  0.53771160  0.95507322    -0.24100
F1850       F  0.74475125  0.53768994  0.88331474    -0.18100
F1851       F  0.78536362  0.42215533  0.04770312    -0.20600
F1852       F  0.80889323  0.46059241  0.05107845    -0.21800
F1853       F  0.79772219  0.44292121  0.98504207    -0.19000
F1854       F  0.68310229  0.51699513  0.06944774    -0.19100
F1855       F  0.66877961  0.48763590  0.01826704    -0.22900
F1856       F  0.68790011  0.52609943  0.99668079    -0.24500
C1857       C  0.76303197  0.48615637  0.52526580    -0.11300
C1858       C  0.75232977  0.47333440  0.48771713     0.11300
C1859       C  0.72943307  0.45725840  0.49208723    -0.03100
C1860       C  0.71801308  0.45442988  0.53445259    -0.05800
C1861       C  0.72853898  0.46720697  0.57239087    -0.16600
C1862       C  0.75139238  0.48368912  0.56776642     0.02300
C1863       C  0.76590036  0.47633819  0.44419641     0.12300
C1864       C  0.71723053  0.44296111  0.45219380     0.62900
H1865       H  0.70075472  0.44185617  0.53832103     0.12300
C1866       C  0.76402026  0.49809311  0.60721313     0.55000
H1867       H  0.78073754  0.49808622  0.52085416     0.08100
C1868       C  0.76161320  0.49864195  0.41613434    -0.05700
C1869       C  0.77255673  0.49845498  0.37303172    -0.06500
C1870       C  0.78764190  0.47683083  0.35750018    -0.16100
C1871       C  0.79306620  0.45509079  0.38680178    -0.01600
C1872       C  0.78230279  0.45554677  0.43005634    -0.09200
C1873       C  0.74523418  0.52227060  0.43150468     0.65100
H1874       H  0.76889631  0.51505071  0.35060345     0.10500
C1875       C  0.80892150  0.43086244  0.37226601     0.63500
H1876       H  0.78568625  0.43906826  0.45285785     0.07900
F1877       F  0.74683186  0.51724601  0.62316922    -0.19600
F1878       F  0.78731345  0.51088632  0.59546216    -0.15800
F1879       F  0.76995161  0.48004221  0.64085483    -0.19300
F1880       F  0.73484250  0.42437198  0.43582075    -0.22700
F1881       F  0.71120924  0.46118876  0.41892725    -0.24100
F1882       F  0.69412250  0.42966605  0.46334934    -0.18100
F1883       F  0.83483252  0.43825685  0.36393394    -0.20600
F1884       F  0.79784125  0.41992923  0.33405667    -0.21800
F1885       F  0.80936407  0.41115843  0.40478136    -0.19000
F1886       F  0.74275743  0.54147979  0.39842303    -0.19100
F1887       F  0.75724670  0.53401727  0.46818970    -0.22900
F1888       F  0.72007990  0.51392473  0.44317029    -0.24500
loop_ 
_geom_bond_atom_site_label_1 
_geom_bond_atom_site_label_2 
_geom_bond_distance 
_geom_bond_site_symmetry_2 
_ccdc_geom_bond_type 
Fe1          O17   2.049       .  S
Fe1           O7   2.080       .  S
Fe1          O14   2.078       .  S
Fe1           O6   2.054       .  S
Fe1          O12   1.978       .  S
Fe2           O5   2.058       .  S
Fe2           O9   2.081       .  S
Fe2          O13   2.049       .  S
Fe2          O18   2.081       .  S
Fe2          O12   1.974       .  S
Fe3          O21   2.068       .  S
Fe3           O8   2.051       .  S
Fe3          O15   2.045       .  S
Fe3           O4   2.067       .  S
Fe3          O12   1.971       .  S
O4           C11   1.269       .  A
O5           C19   1.266       .  A
O6           C11   1.264       .  A
O7           C10   1.273       .  A
O8           C20   1.267       .  A
O9           C22   1.272       .  A
C10          O15   1.265       .  A
C10        C1806   1.474       .  S
C11        C1861   1.487       .  S
O13          C16   1.266       .  A
O14          C16   1.268       .  A
C16        C1701   1.486       .  S
O17          C22   1.268       .  A
O18          C20   1.274       .  A
C19          O21   1.266       .  A
C19        C1733   1.481       .  S
C20        C1765   1.487       .  S
C22        C1829   1.486       .  S
Fe23         O39   2.083       .  S
Fe23         O29   2.071       .  S
Fe23         O36   2.078       .  S
Fe23         O28   2.093       .  S
Fe23         O34   1.981       .  S
Fe24         O27   2.062       .  S
Fe24         O31   2.052       .  S
Fe24         O35   2.051       .  S
Fe24         O40   2.058       .  S
Fe24         O34   1.966       .  S
Fe25         O43   2.055       .  S
Fe25         O30   2.074       .  S
Fe25         O37   2.068       .  S
Fe25         O26   2.038       .  S
Fe25         O34   1.971       .  S
O26          C33   1.259       .  A
O27          C41   1.262       .  A
O28          C33   1.270       .  A
O29          C32   1.275       .  A
O30          C42   1.271       .  A
O31          C44   1.265       .  A
C32          O37   1.273       .  A
C32        C1870   1.485       .  S
C33        C1573   1.492       .  S
O35          C38   1.266       .  A
O36          C38   1.274       .  A
C38        C1838   1.486       .  S
O39          C44   1.270       .  A
O40          C42   1.273       .  A
C41          O43   1.264       .  A
C41        C1637   1.501       .  S
C42        C1669   1.500       .  S
C44        C1614   1.477       .  S
Fe45         O61   2.057       .  S
Fe45         O51   2.086       .  S
Fe45         O58   2.085   1_655  S
Fe45         O50   2.053       .  S
Fe45         O56   1.978       .  S
Fe46         O49   2.057       .  S
Fe46         O53   2.063       .  S
Fe46         O57   2.049       .  S
Fe46         O62   2.062       .  S
Fe46         O56   1.974       .  S
Fe47         O65   2.064       .  S
Fe47         O52   2.051       .  S
Fe47         O59   2.055       .  S
Fe47         O48   2.060       .  S
Fe47         O56   1.970       .  S
O48          C55   1.266       .  A
O49          C63   1.266       .  A
O50          C55   1.262       .  A
O51          C54   1.274       .  A
O52          C64   1.270       .  A
O53          C66   1.268       .  A
C54          O59   1.272       .  A
C54        C1646   1.487       .  S
C55        C1541   1.492       .  S
O57          C60   1.266   1_655  A
O58          C60   1.269       .  A
C60        C1413   1.491       .  S
O61          C66   1.267       .  A
O62          C64   1.271       .  A
C63          O65   1.263       .  A
C63        C1454   1.493       .  S
C64        C1477   1.475       .  S
C66        C1509   1.476       .  S
Fe67         O83   2.091       .  S
Fe67         O73   2.049       .  S
Fe67         O80   2.056       .  S
Fe67         O72   2.089   1_655  S
Fe67         O78   1.983       .  S
Fe68         O71   2.054       .  S
Fe68         O75   2.063       .  S
Fe68         O79   2.055       .  S
Fe68         O84   2.056       .  S
Fe68         O78   1.972       .  S
Fe69         O87   2.054       .  S
Fe69         O74   2.084       .  S
Fe69         O81   2.074       .  S
Fe69         O70   2.055   1_655  S
Fe69         O78   1.983       .  S
O70          C77   1.265       .  A
O71          C85   1.265       .  A
O72          C77   1.271       .  A
O73          C76   1.268       .  A
O74          C86   1.274       .  A
O75          C88   1.268       .  A
C76          O81   1.270       .  A
C76        C1550   1.485       .  S
C77        C1349   1.480       .  S
O79          C82   1.266       .  A
O80          C82   1.264       .  A
C82        C1518   1.479       .  S
O83          C88   1.275       .  A
O84          C86   1.272       .  A
C85          O87   1.262       .  A
C85        C1797   1.485       .  S
C86        C1678   1.482       .  S
C88        C1381   1.497       .  S
Fe89        O105   2.072   1_565  S
Fe89         O95   2.066       .  S
Fe89        O102   2.060       .  S
Fe89         O94   2.072       .  S
Fe89        O100   1.972   1_565  S
Fe90         O93   2.059       .  S
Fe90         O97   2.061       .  S
Fe90        O101   2.050       .  S
Fe90        O106   2.058       .  S
Fe90        O100   1.963       .  S
Fe91        O109   2.070       .  S
Fe91         O96   2.061       .  S
Fe91        O103   2.069       .  S
Fe91         O92   2.063   1_545  S
Fe91        O100   1.967       .  S
O92          C99   1.269       .  A
O93         C107   1.267       .  A
O94          C99   1.268       .  A
O95          C98   1.270       .  A
O96         C108   1.269       .  A
O97         C110   1.268       .  A
C98         O103   1.270   1_565  A
C98        C1326   1.484       .  S
C99        C1189   1.483       .  S
O101        C104   1.264       .  A
O102        C104   1.267   1_565  A
C104       C1294   1.476       .  S
O105        C110   1.272       .  A
O106        C108   1.269       .  A
C107        O109   1.267       .  A
C107       C1221   1.493       .  S
C108       C1253   1.467       .  S
C110       C1445   1.478       .  S
Fe111       O127   2.051       .  S
Fe111       O117   2.092   1_565  S
Fe111       O124   2.091       .  S
Fe111       O116   2.055       .  S
Fe111       O122   1.974   1_565  S
Fe112       O115   2.065       .  S
Fe112       O119   2.063       .  S
Fe112       O123   2.043   1_545  S
Fe112       O128   2.068       .  S
Fe112       O122   1.968       .  S
Fe113       O131   2.078       .  S
Fe113       O118   2.051       .  S
Fe113       O125   2.053       .  S
Fe113       O114   2.074       .  S
Fe113       O122   1.964       .  S
O114        C121   1.268       .  A
O115        C129   1.263       .  A
O116        C121   1.263   1_565  A
O117        C120   1.279       .  A
O118        C130   1.273       .  A
O119        C132   1.269       .  A
C120        O125   1.270       .  A
C120       C1157   1.496       .  S
C121       C1317   1.491       .  S
O123        C126   1.264       .  A
O124        C126   1.270       .  A
C126       C1125   1.490       .  S
O127        C132   1.269   1_565  A
O128        C130   1.275       .  A
C129        O131   1.266       .  A
C129       C1390   1.488       .  S
C130       C1486   1.477       .  S
C132       C1285   1.472       .  S
Fe133       O149   2.094       .  S
Fe133       O139   2.050       .  S
Fe133       O146   2.052       .  S
Fe133       O138   2.085       .  S
Fe133       O144   1.967       .  S
Fe134       O137   2.061       .  S
Fe134       O141   2.052       .  S
Fe134       O145   2.068       .  S
Fe134       O150   2.051       .  S
Fe134       O144   1.957       .  S
Fe135       O153   2.058       .  S
Fe135       O140   2.080       .  S
Fe135       O147   2.065       .  S
Fe135       O136   2.048       .  S
Fe135       O144   1.968       .  S
O136        C143   1.266       .  A
O137        C151   1.267       .  A
O138        C143   1.271       .  A
O139        C142   1.263       .  A
O140        C152   1.273       .  A
O141        C154   1.270       .  A
C142        O147   1.270       .  A
C142       C1102   1.495       .  S
C143       C1038   1.472       .  S
O145        C148   1.263       .  A
O146        C148   1.264       .  A
C148       C1061   1.491       .  S
O149        C154   1.278       .  A
O150        C152   1.272       .  A
C151        O153   1.261       .  A
C151       C1166   1.498       .  S
C152       C1262   1.464       .  S
C154       C1742   1.471       .  S
Fe155       O171   2.039       .  S
Fe155       O161   2.092       .  S
Fe155       O168   2.086       .  S
Fe155       O160   2.048       .  S
Fe155       O166   1.976       .  S
Fe156       O159   2.063       .  S
Fe156       O163   2.093       .  S
Fe156       O167   2.049       .  S
Fe156       O172   2.090       .  S
Fe156       O166   1.974       .  S
Fe157       O175   2.060       .  S
Fe157       O162   2.041       .  S
Fe157       O169   2.047       .  S
Fe157       O158   2.065       .  S
Fe157       O166   1.961       .  S
O158        C165   1.266       .  A
O159        C173   1.264       .  A
O160        C165   1.265       .  A
O161        C164   1.276       .  A
O162        C174   1.268       .  A
O163        C176   1.275       .  A
C164        O169   1.264       .  A
C164       C1230   1.497       .  S
C165       C1093   1.482       .  S
O167        C170   1.264       .  A
O168        C170   1.269       .  A
C170       C1006   1.479       .  S
O171        C176   1.268       .  A
O172        C174   1.276       .  A
C173        O175   1.265       .  A
C173       C1605   1.486       .  S
C174       C1774   1.479       .  S
C176       C1070   1.491       .  S
Fe177       O193   2.072       .  S
Fe177       O183   2.057       .  S
Fe177       O190   2.054       .  S
Fe177       O182   2.077   1_565  S
Fe177       O188   1.977       .  S
Fe178       O181   2.058       .  S
Fe178       O185   2.063       .  S
Fe178       O189   2.056       .  S
Fe178       O194   2.059       .  S
Fe178       O188   1.967       .  S
Fe179       O197   2.058       .  S
Fe179       O184   2.078       .  S
Fe179       O191   2.071       .  S
Fe179       O180   2.059       .  S
Fe179       O188   1.970       .  S
O180        C187   1.268   1_565  A
O181        C195   1.263       .  A
O182        C187   1.268       .  A
O183        C186   1.266       .  A
O184        C196   1.273       .  A
O185        C198   1.271       .  A
C186        O191   1.271       .  A
C186        C901   1.481       .  S
C187       C1422   1.488       .  S
O189        C192   1.266       .  A
O190        C192   1.264       .  A
C192        C933   1.477       .  S
O193        C198   1.271       .  A
O194        C196   1.273       .  A
C195        O197   1.266       .  A
C195        C837   1.494       .  S
C196        C869   1.475       .  S
C198        C965   1.487       .  S
Fe199       O215   2.057       .  S
Fe199       O205   2.071       .  S
Fe199       O212   2.071   1_565  S
Fe199       O204   2.056       .  S
Fe199       O210   1.978       .  S
Fe200       O203   2.060       .  S
Fe200       O207   2.065       .  S
Fe200       O211   2.057       .  S
Fe200       O216   2.069       .  S
Fe200       O210   1.977       .  S
Fe201       O219   2.058       .  S
Fe201       O206   2.056       .  S
Fe201       O213   2.057       .  S
Fe201       O202   2.060       .  S
Fe201       O210   1.970       .  S
O202        C209   1.265       .  A
O203        C217   1.263       .  A
O204        C209   1.266       .  A
O205        C208   1.270       .  A
O206        C218   1.271       .  A
O207        C220   1.271       .  A
C208        O213   1.270       .  A
C208        C741   1.486       .  S
C209        C910   1.478       .  S
O211        C214   1.267   1_565  A
O212        C214   1.266       .  A
C214       C1029   1.497       .  S
O215        C220   1.267       .  A
O216        C218   1.272       .  A
C217        O219   1.265       .  A
C217        C773   1.491       .  S
C218        C805   1.465       .  S
C220        C942   1.476       .  S
Fe221       O237   2.096       .  S
Fe221       O227   2.048       .  S
Fe221       O234   2.058       .  S
Fe221       O226   2.086       .  S
Fe221       O232   1.968       .  S
Fe222       O225   2.061       .  S
Fe222       O229   2.043       .  S
Fe222       O233   2.063       .  S
Fe222       O238   2.046       .  S
Fe222       O232   1.955       .  S
Fe223       O241   2.063       .  S
Fe223       O228   2.106       .  S
Fe223       O235   2.082       .  S
Fe223       O224   2.053       .  S
Fe223       O232   1.962       .  S
O224        C231   1.270       .  A
O225        C239   1.264       .  A
O226        C231   1.272       .  A
O227        C230   1.265       .  A
O228        C240   1.280       .  A
O229        C242   1.271       .  A
C230        O235   1.272       .  A
C230        C709   1.477       .  S
C231       C1710   1.480       .  S
O233        C236   1.263       .  A
O234        C236   1.263       .  A
C236        C677   1.472       .  S
O237        C242   1.278       .  A
O238        C240   1.272       .  A
C239        O241   1.263       .  A
C239        C613   1.475       .  S
C240        C645   1.478       .  S
C242        C782   1.484       .  S
Fe243       O259   2.052       .  S
Fe243       O249   2.104       .  S
Fe243       O256   2.105       .  S
Fe243       O248   2.062       .  S
Fe243       O254   1.966       .  S
Fe244       O247   2.054       .  S
Fe244       O251   2.083       .  S
Fe244       O255   2.043       .  S
Fe244       O260   2.092       .  S
Fe244       O254   1.967       .  S
Fe245       O263   2.078       .  S
Fe245       O250   2.041       .  S
Fe245       O257   2.055       .  S
Fe245       O246   2.064       .  S
Fe245       O254   1.956       .  S
O246        C253   1.264       .  A
O247        C261   1.262       .  A
O248        C253   1.265       .  A
O249        C252   1.279       .  A
O250        C262   1.269       .  A
O251        C264   1.271       .  A
C252        O257   1.274       .  A
C252        C581   1.503       .  S
C253        C718   1.478       .  S
O255        C258   1.265       .  A
O256        C258   1.277       .  A
C258       C1198   1.491       .  S
O259        C264   1.266       .  A
O260        C262   1.275       .  A
C261        O263   1.269       .  A
C261        C974   1.496       .  S
C262        C814   1.463       .  S
C264        C686   1.477       .  S
Fe265       O281   2.057       .  S
Fe265       O271   2.092   1_655  S
Fe265       O278   2.088       .  S
Fe265       O270   2.068       .  S
Fe265       O276   1.978   1_655  S
Fe266       O269   2.062       .  S
Fe266       O273   2.084       .  S
Fe266       O277   2.053   1_455  S
Fe266       O282   2.090       .  S
Fe266       O276   1.974       .  S
Fe267       O285   2.053       .  S
Fe267       O272   2.048       .  S
Fe267       O279   2.048       .  S
Fe267       O268   2.053       .  S
Fe267       O276   1.967       .  S
O268        C275   1.265       .  A
O269        C283   1.264       .  A
O270        C275   1.265   1_655  A
O271        C274   1.276       .  A
O272        C284   1.268       .  A
O273        C286   1.272   1_455  A
C274        O279   1.268       .  A
C274        C846   1.477       .  S
C275        C549   1.493       .  S
O277        C280   1.266       .  A
O278        C280   1.272       .  A
C280       C1582   1.481       .  S
O281        C286   1.267       .  A
O282        C284   1.276       .  A
C283        O285   1.264       .  A
C283        C453   1.481       .  S
C284        C494   1.488       .  S
C286        C526   1.476       .  S
Fe287       O303   2.085   1_655  S
Fe287       O293   2.052       .  S
Fe287       O300   2.068       .  S
Fe287       O292   2.094       .  S
Fe287       O298   1.980   1_655  S
Fe288       O291   2.066       .  S
Fe288       O295   2.058       .  S
Fe288       O299   2.060       .  S
Fe288       O304   2.053       .  S
Fe288       O298   1.973       .  S
Fe289       O307   2.049       .  S
Fe289       O294   2.082       .  S
Fe289       O301   2.071       .  S
Fe289       O290   2.046   1_455  S
Fe289       O298   1.978       .  S
O290        C297   1.267       .  A
O291        C305   1.264       .  A
O292        C297   1.274       .  A
O293        C296   1.266       .  A
O294        C306   1.273       .  A
O295        C308   1.270       .  A
C296        O301   1.267   1_655  A
C296        C558   1.489       .  S
C297       C1134   1.484       .  S
O299        C302   1.265       .  A
O300        C302   1.266   1_655  A
C302        C517   1.481   1_455  S
O303        C308   1.275       .  A
O304        C306   1.270       .  A
C305        O307   1.264       .  A
C305        C750   1.489       .  S
C306        C878   1.469       .  S
C308        C421   1.480       .  S
Fe309       O325   2.085       .  S
Fe309       O315   2.055       .  S
Fe309       O322   2.063       .  S
Fe309       O314   2.083       .  S
Fe309       O320   1.983       .  S
Fe310       O313   2.065       .  S
Fe310       O317   2.051       .  S
Fe310       O321   2.059       .  S
Fe310       O326   2.044       .  S
Fe310       O320   1.963       .  S
Fe311       O329   2.066       .  S
Fe311       O316   2.097       .  S
Fe311       O323   2.086       .  S
Fe311       O312   2.048       .  S
Fe311       O320   1.973       .  S
O312        C319   1.265       .  A
O313        C327   1.264       .  A
O314        C319   1.268       .  A
O315        C318   1.270       .  A
O316        C328   1.277       .  A
O317        C330   1.269       .  A
C318        O323   1.275       .  A
C318        C398   1.484       .  S
C319        C997   1.494       .  S
O321        C324   1.265       .  A
O322        C324   1.266       .  A
C324        C366   1.476       .  S
O325        C330   1.271       .  A
O326        C328   1.271       .  A
C327        O329   1.264       .  A
C327        C590   1.489       .  S
C328        C654   1.496       .  S
C330        C462   1.502       .  S
Fe331       O347   2.062       .  S
Fe331       O337   2.086       .  S
Fe331       O344   2.090       .  S
Fe331       O336   2.060       .  S
Fe331       O342   1.980       .  S
Fe332       O335   2.055       .  S
Fe332       O339   2.073       .  S
Fe332       O343   2.045       .  S
Fe332       O348   2.082       .  S
Fe332       O342   1.976       .  S
Fe333       O351   2.073       .  S
Fe333       O338   2.055       .  S
Fe333       O345   2.062       .  S
Fe333       O334   2.074       .  S
Fe333       O342   1.976       .  S
O334        C341   1.269       .  A
O335        C349   1.262       .  A
O336        C341   1.265       .  A
O337        C340   1.275       .  A
O338        C350   1.270       .  A
O339        C352   1.270       .  A
C340        O345   1.269       .  A
C340        C622   1.483       .  S
C341        C389   1.490       .  S
O343        C346   1.266       .  A
O344        C346   1.270       .  A
C346       C1358   1.497       .  S
O347        C352   1.270       .  A
O348        C350   1.274       .  A
C349        O351   1.268       .  A
C349        C430   1.497       .  S
C350        C485   1.488       .  S
C352        C357   1.488       .  S
C353        C354   1.402       .  A
C353        C358   1.408       .  A
C353        H363   1.083       .  S
C354        C359   1.484       .  S
C354        C355   1.414       .  A
C355        C356   1.406       .  A
C355        C360   1.520       .  S
C356        C357   1.408       .  A
C356        H361   1.083       .  S
C357        C358   1.421       .  A
C358        C362   1.519       .  S
C359        C364   1.417       .  A
C359        C368   1.402       .  A
C360        F376   1.382       .  S
C360        F377   1.382       .  S
C360        F378   1.385       .  S
C362        F373   1.385       .  S
C362        F374   1.383       .  S
C362        F375   1.383       .  S
C364        C365   1.408       .  A
C364        C369   1.519       .  S
C365        C366   1.403       .  A
C365        H370   1.083       .  S
C366        C367   1.417       .  A
C367        C368   1.404       .  A
C367        C371   1.520       .  S
C368        H372   1.083       .  S
C369        F382   1.384       .  S
C369        F383   1.382       .  S
C369        F384   1.382       .  S
C371        F379   1.382       .  S
C371        F380   1.384       .  S
C371        F381   1.385       .  S
C385        C386   1.399       .  A
C385        C390   1.408   1_554  A
C385        H395   1.083       .  S
C386        C391   1.484       .  S
C386        C387   1.415       .  A
C387        C388   1.406       .  A
C387        C392   1.521       .  S
C388        C389   1.406   1_554  A
C388        H393   1.080       .  S
C389        C390   1.424       .  A
C390        C394   1.519       .  S
C391        C396   1.414       .  A
C391        C400   1.401       .  A
C392        F408   1.382       .  S
C392        F409   1.382       .  S
C392        F410   1.384       .  S
C394        F405   1.385       .  S
C394        F406   1.380       .  S
C394        F407   1.382       .  S
C396        C397   1.408       .  A
C396        C401   1.520       .  S
C397        C398   1.408       .  A
C397        H402   1.083       .  S
C398        C399   1.420       .  A
C399        C400   1.407       .  A
C399        C403   1.519       .  S
C400        H404   1.083       .  S
C401        F414   1.384       .  S
C401        F415   1.382       .  S
C401        F416   1.382       .  S
C403        F411   1.384       .  S
C403        F412   1.383       .  S
C403        F413   1.384       .  S
C417        C418   1.403       .  A
C417        C422   1.408       .  A
C417        H427   1.083       .  S
C418        C423   1.486       .  S
C418        C419   1.416       .  A
C419        C420   1.407       .  A
C419        C424   1.519       .  S
C420        C421   1.404       .  A
C420        H425   1.083       .  S
C421        C422   1.417       .  A
C422        C426   1.518       .  S
C423        C428   1.414       .  A
C423        C432   1.397       .  A
C424        F440   1.382       .  S
C424        F441   1.382       .  S
C424        F442   1.385       .  S
C426        F437   1.383       .  S
C426        F438   1.384       .  S
C426        F439   1.382       .  S
C428        C429   1.410       .  A
C428        C433   1.519       .  S
C429        C430   1.411       .  A
C429        H434   1.082       .  S
C430        C431   1.429       .  A
C431        C432   1.406       .  A
C431        C435   1.523       .  S
C432        H436   1.083       .  S
C433        F446   1.384       .  S
C433        F447   1.382       .  S
C433        F448   1.382       .  S
C435        F443   1.384       .  S
C435        F444   1.383       .  S
C435        F445   1.385       .  S
C449        C450   1.404       .  A
C449        C454   1.408       .  A
C449        H459   1.083       .  S
C450        C455   1.484       .  S
C450        C451   1.415       .  A
C451        C452   1.403       .  A
C451        C456   1.521       .  S
C452        C453   1.406       .  A
C452        H457   1.083       .  S
C453        C454   1.417       .  A
C454        C458   1.518       .  S
C455        C460   1.411       .  A
C455        C464   1.400       .  A
C456        F472   1.382       .  S
C456        F473   1.382       .  S
C456        F474   1.385       .  S
C458        F469   1.384       .  S
C458        F470   1.385       .  S
C458        F471   1.382       .  S
C460        C461   1.405       .  A
C460        C465   1.522       .  S
C461        C462   1.414       .  A
C461        H466   1.078       .  S
C462        C463   1.429       .  A
C463        C464   1.409       .  A
C463        C467   1.521       .  S
C464        H468   1.080       .  S
C465        F478   1.385       .  S
C465        F479   1.382       .  S
C465        F480   1.383       .  S
C467        F475   1.383       .  S
C467        F476   1.384       .  S
C467        F477   1.385       .  S
C481        C482   1.401       .  A
C481        C486   1.401   1_554  A
C481        H491   1.083       .  S
C482        C487   1.487       .  S
C482        C483   1.417   1_554  A
C483        C484   1.408       .  A
C483        C488   1.515       .  S
C484        C485   1.407       .  A
C484        H489   1.084       .  S
C485        C486   1.421       .  A
C486        C490   1.517   1_556  S
C487        C492   1.415       .  A
C487        C496   1.401       .  A
C488        F504   1.383       .  S
C488        F505   1.383       .  S
C488        F506   1.384       .  S
C490        F501   1.384   1_554  S
C490        F502   1.385       .  S
C490        F503   1.383       .  S
C492        C493   1.406       .  A
C492        C497   1.515       .  S
C493        C494   1.407       .  A
C493        H498   1.084       .  S
C494        C495   1.423       .  A
C495        C496   1.403       .  A
C495        C499   1.518       .  S
C496        H500   1.084   1_554  S
C497        F510   1.384       .  S
C497        F511   1.382       .  S
C497        F512   1.384       .  S
C499        F507   1.382       .  S
C499        F508   1.383       .  S
C499        F509   1.385   1_554  S
C513        C514   1.402       .  A
C513        C518   1.410       .  A
C513        H523   1.083       .  S
C514        C519   1.487       .  S
C514        C515   1.417       .  A
C515        C516   1.407       .  A
C515        C520   1.519       .  S
C516        C517   1.402       .  A
C516        H521   1.082   1_655  S
C517        C518   1.420       .  A
C518        C522   1.519       .  S
C519        C524   1.418   1_655  A
C519        C528   1.403       .  A
C520        F536   1.382       .  S
C520        F537   1.381   1_655  S
C520        F538   1.385       .  S
C522        F533   1.383   1_655  S
C522        F534   1.385       .  S
C522        F535   1.382       .  S
C524        C525   1.408       .  A
C524        C529   1.519       .  S
C525        C526   1.401   1_455  A
C525        H530   1.082       .  S
C526        C527   1.415       .  A
C527        C528   1.409       .  A
C527        C531   1.517       .  S
C528        H532   1.083       .  S
C529        F542   1.385       .  S
C529        F543   1.382       .  S
C529        F544   1.382       .  S
C531        F539   1.384       .  S
C531        F540   1.382       .  S
C531        F541   1.384       .  S
C545        C546   1.401   1_654  A
C545        C550   1.411       .  A
C545        H555   1.083       .  S
C546        C551   1.482   1_455  S
C546        C547   1.412       .  A
C547        C548   1.401   1_556  A
C547        C552   1.521       .  S
C548        C549   1.408       .  A
C548        H553   1.080       .  S
C549        C550   1.424   1_455  A
C550        C554   1.519       .  S
C551        C556   1.411       .  A
C551        C560   1.401   1_655  A
C552        F568   1.382       .  S
C552        F569   1.381       .  S
C552        F570   1.385       .  S
C554        F565   1.383       .  S
C554        F566   1.385       .  S
C554        F567   1.384       .  S
C556        C557   1.404       .  A
C556        C561   1.520       .  S
C557        C558   1.408       .  A
C557        H562   1.083       .  S
C558        C559   1.423   1_655  A
C559        C560   1.409       .  A
C559        C563   1.520       .  S
C560        H564   1.083       .  S
C561        F574   1.385       .  S
C561        F575   1.382       .  S
C561        F576   1.382       .  S
C563        F571   1.383       .  S
C563        F572   1.383       .  S
C563        F573   1.385       .  S
C577        C578   1.402       .  A
C577        C582   1.412       .  A
C577        H587   1.083       .  S
C578        C583   1.491       .  S
C578        C579   1.414       .  A
C579        C580   1.407       .  A
C579        C584   1.521       .  S
C580        C581   1.411       .  A
C580        H585   1.082       .  S
C581        C582   1.427       .  A
C582        C586   1.520       .  S
C583        C588   1.418       .  A
C583        C592   1.399       .  A
C584        F600   1.382       .  S
C584        F601   1.383       .  S
C584        F602   1.384       .  S
C586        F597   1.385       .  S
C586        F598   1.383       .  S
C586        F599   1.384       .  S
C588        C589   1.412       .  A
C588        C593   1.518       .  S
C589        C590   1.406       .  A
C589        H594   1.082       .  S
C590        C591   1.423       .  A
C591        C592   1.406       .  A
C591        C595   1.520       .  S
C592        H596   1.083       .  S
C593        F606   1.385       .  S
C593        F607   1.382       .  S
C593        F608   1.382       .  S
C595        F603   1.385       .  S
C595        F604   1.381       .  S
C595        F605   1.383       .  S
C609        C610   1.405       .  A
C609        C614   1.410       .  A
C609        H619   1.083       .  S
C610        C615   1.483       .  S
C610        C611   1.415       .  A
C611        C612   1.402       .  A
C611        C616   1.520       .  S
C612        C613   1.402       .  A
C612        H617   1.084       .  S
C613        C614   1.416       .  A
C614        C618   1.517       .  S
C615        C620   1.413       .  A
C615        C624   1.403       .  A
C616        F632   1.382       .  S
C616        F633   1.382       .  S
C616        F634   1.384       .  S
C618        F629   1.382       .  S
C618        F630   1.385       .  S
C618        F631   1.384       .  S
C620        C621   1.405       .  A
C620        C625   1.520       .  S
C621        C622   1.404       .  A
C621        H626   1.083       .  S
C622        C623   1.419       .  A
C623        C624   1.409       .  A
C623        C627   1.519       .  S
C624        H628   1.085       .  S
C625        F638   1.385       .  S
C625        F639   1.382       .  S
C625        F640   1.382       .  S
C627        F635   1.382       .  S
C627        F636   1.383       .  S
C627        F637   1.385       .  S
C641        C642   1.399       .  A
C641        C646   1.401       .  A
C641        H651   1.085       .  S
C642        C647   1.482       .  S
C642        C643   1.415       .  A
C643        C644   1.410       .  A
C643        C648   1.518       .  S
C644        C645   1.406       .  A
C644        H649   1.083       .  S
C645        C646   1.417       .  A
C646        C650   1.515       .  S
C647        C652   1.414       .  A
C647        C656   1.404       .  A
C648        F664   1.383       .  S
C648        F665   1.382       .  S
C648        F666   1.385       .  S
C650        F661   1.383       .  S
C650        F662   1.384       .  S
C650        F663   1.381       .  S
C652        C653   1.398       .  A
C652        C657   1.526       .  S
C653        C654   1.409       .  A
C653        H658   1.082       .  S
C654        C655   1.424       .  A
C655        C656   1.416       .  A
C655        C659   1.518       .  S
C656        H660   1.083       .  S
C657        F670   1.385       .  S
C657        F671   1.382       .  S
C657        F672   1.381       .  S
C659        F667   1.383       .  S
C659        F668   1.384       .  S
C659        F669   1.385       .  S
C673        C674   1.400       .  A
C673        C678   1.404       .  A
C673        H683   1.083       .  S
C674        C679   1.480       .  S
C674        C675   1.416       .  A
C675        C676   1.407       .  A
C675        C680   1.518       .  S
C676        C677   1.401       .  A
C676        H681   1.083       .  S
C677        C678   1.418       .  A
C678        C682   1.520       .  S
C679        C684   1.415       .  A
C679        C688   1.402       .  A
C680        F696   1.382       .  S
C680        F697   1.382       .  S
C680        F698   1.384       .  S
C682        F693   1.382       .  S
C682        F694   1.385       .  S
C682        F695   1.383       .  S
C684        C685   1.403       .  A
C684        C689   1.521       .  S
C685        C686   1.403       .  A
C685        H690   1.084       .  S
C686        C687   1.415       .  A
C687        C688   1.408       .  A
C687        C691   1.511       .  S
C688        H692   1.083       .  S
C689        F702   1.385       .  S
C689        F703   1.382       .  S
C689        F704   1.382       .  S
C691        F699   1.382       .  S
C691        F700   1.383       .  S
C691        F701   1.385       .  S
C705        C706   1.401       .  A
C705        C710   1.407       .  A
C705        H715   1.083       .  S
C706        C711   1.483       .  S
C706        C707   1.416       .  A
C707        C708   1.406       .  A
C707        C712   1.520       .  S
C708        C709   1.402       .  A
C708        H713   1.082       .  S
C709        C710   1.418       .  A
C710        C714   1.518       .  S
C711        C716   1.415   1_556  A
C711        C720   1.402       .  A
C712        F728   1.382       .  S
C712        F729   1.381   1_556  S
C712        F730   1.384       .  S
C714        F725   1.383       .  S
C714        F726   1.385       .  S
C714        F727   1.382       .  S
C716        C717   1.408       .  A
C716        C721   1.519       .  S
C717        C718   1.405       .  A
C717        H722   1.083       .  S
C718        C719   1.418       .  A
C719        C720   1.406   1_554  A
C719        C723   1.519       .  S
C720        H724   1.083       .  S
C721        F734   1.384       .  S
C721        F735   1.382       .  S
C721        F736   1.382       .  S
C723        F731   1.385   1_554  S
C723        F732   1.384       .  S
C723        F733   1.382       .  S
C737        C738   1.400       .  A
C737        C742   1.406       .  A
C737        H747   1.083       .  S
C738        C743   1.481       .  S
C738        C739   1.413       .  A
C739        C740   1.405       .  A
C739        C744   1.520       .  S
C740        C741   1.408       .  A
C740        H745   1.083       .  S
C741        C742   1.422       .  A
C742        C746   1.520       .  S
C743        C748   1.413       .  A
C743        C752   1.400       .  A
C744        F760   1.382       .  S
C744        F761   1.382       .  S
C744        F762   1.384       .  S
C746        F757   1.383       .  S
C746        F758   1.383       .  S
C746        F759   1.383       .  S
C748        C749   1.404       .  A
C748        C753   1.521       .  S
C749        C750   1.409       .  A
C749        H754   1.082       .  S
C750        C751   1.423       .  A
C751        C752   1.407       .  A
C751        C755   1.520       .  S
C752        H756   1.083       .  S
C753        F766   1.385       .  S
C753        F767   1.382       .  S
C753        F768   1.382       .  S
C755        F763   1.383       .  S
C755        F764   1.384       .  S
C755        F765   1.385       .  S
C769        C770   1.400       .  A
C769        C774   1.406       .  A
C769        H779   1.083       .  S
C770        C775   1.480       .  S
C770        C771   1.413       .  A
C771        C772   1.404       .  A
C771        C776   1.521       .  S
C772        C773   1.410       .  A
C772        H777   1.082       .  S
C773        C774   1.424       .  A
C774        C778   1.518       .  S
C775        C780   1.412       .  A
C775        C784   1.402       .  A
C776        F792   1.382       .  S
C776        F793   1.382       .  S
C776        F794   1.385       .  S
C778        F789   1.385       .  S
C778        F790   1.382       .  S
C778        F791   1.382       .  S
C780        C781   1.403       .  A
C780        C785   1.520       .  S
C781        C782   1.408       .  A
C781        H786   1.083       .  S
C782        C783   1.420       .  A
C783        C784   1.407       .  A
C783        C787   1.520       .  S
C784        H788   1.083       .  S
C785        F798   1.385       .  S
C785        F799   1.381       .  S
C785        F800   1.382       .  S
C787        F795   1.385       .  S
C787        F796   1.382       .  S
C787        F797   1.383       .  S
C801        C802   1.401   1_556  A
C801        C806   1.401       .  A
C801        H811   1.084       .  S
C802        C807   1.475       .  S
C802        C803   1.413       .  A
C803        C804   1.407   1_554  A
C803        C808   1.515       .  S
C804        C805   1.403       .  A
C804        H809   1.083       .  S
C805        C806   1.415       .  A
C806        C810   1.521       .  S
C807        C812   1.419       .  A
C807        C816   1.404       .  A
C808        F824   1.383       .  S
C808        F825   1.383       .  S
C808        F826   1.384       .  S
C810        F821   1.382       .  S
C810        F822   1.385       .  S
C810        F823   1.383       .  S
C812        C813   1.397       .  A
C812        C817   1.521       .  S
C813        C814   1.398       .  A
C813        H818   1.086       .  S
C814        C815   1.415       .  A
C815        C816   1.407       .  A
C815        C819   1.517       .  S
C816        H820   1.085       .  S
C817        F830   1.384       .  S
C817        F831   1.383       .  S
C817        F832   1.380       .  S
C819        F827   1.383       .  S
C819        F828   1.382       .  S
C819        F829   1.383       .  S
C833        C834   1.401       .  A
C833        C838   1.410       .  A
C833        H843   1.083       .  S
C834        C839   1.482       .  S
C834        C835   1.412       .  A
C835        C836   1.403       .  A
C835        C840   1.522       .  S
C836        C837   1.410       .  A
C836        H841   1.082       .  S
C837        C838   1.426       .  A
C838        C842   1.520       .  S
C839        C844   1.414       .  A
C839        C848   1.403       .  A
C840        F856   1.382       .  S
C840        F857   1.382       .  S
C840        F858   1.385       .  S
C842        F853   1.385       .  S
C842        F854   1.383       .  S
C842        F855   1.384       .  S
C844        C845   1.405       .  A
C844        C849   1.520       .  S
C845        C846   1.405       .  A
C845        H850   1.083       .  S
C846        C847   1.415       .  A
C847        C848   1.408       .  A
C847        C851   1.517       .  S
C848        H852   1.083       .  S
C849        F862   1.384       .  S
C849        F863   1.382       .  S
C849        F864   1.382       .  S
C851        F859   1.383       .  S
C851        F860   1.382       .  S
C851        F861   1.384       .  S
C865        C866   1.407       .  A
C865        C870   1.412       .  A
C865        H875   1.082       .  S
C866        C871   1.486       .  S
C866        C867   1.419       .  A
C867        C868   1.399       .  A
C867        C872   1.523       .  S
C868        C869   1.400       .  A
C868        H873   1.084       .  S
C869        C870   1.414       .  A
C870        C874   1.516       .  S
C871        C876   1.418       .  A
C871        C880   1.405       .  A
C872        F888   1.382       .  S
C872        F889   1.383       .  S
C872        F890   1.385       .  S
C874        F885   1.383       .  S
C874        F886   1.385       .  S
C874        F887   1.382       .  S
C876        C877   1.403       .  A
C876        C881   1.521       .  S
C877        C878   1.399       .  A
C877        H882   1.084       .  S
C878        C879   1.413       .  A
C879        C880   1.409       .  A
C879        C883   1.516   1_455  S
C880        H884   1.083       .  S
C881        F894   1.385       .  S
C881        F895   1.382       .  S
C881        F896   1.383       .  S
C883        F891   1.385       .  S
C883        F892   1.383       .  S
C883        F893   1.382       .  S
C897        C898   1.399       .  A
C897        C902   1.405       .  A
C897        H907   1.083   1_565  S
C898        C903   1.481       .  S
C898        C899   1.415       .  A
C899        C900   1.406       .  A
C899        C904   1.520       .  S
C900        C901   1.405       .  A
C900        H905   1.083       .  S
C901        C902   1.421       .  A
C902        C906   1.519   1_565  S
C903        C908   1.413       .  A
C903        C912   1.402       .  A
C904        F920   1.382       .  S
C904        F921   1.382       .  S
C904        F922   1.385       .  S
C906        F917   1.385       .  S
C906        F918   1.383       .  S
C906        F919   1.384       .  S
C908        C909   1.404   1_554  A
C908        C913   1.519       .  S
C909        C910   1.405       .  A
C909        H914   1.083       .  S
C910        C911   1.418   1_556  A
C911        C912   1.407       .  A
C911        C915   1.519       .  S
C912        H916   1.083       .  S
C913        F926   1.384   1_554  S
C913        F927   1.382   1_565  S
C913        F928   1.382       .  S
C915        F923   1.385       .  S
C915        F924   1.384       .  S
C915        F925   1.382       .  S
C929        C930   1.398       .  A
C929        C934   1.404       .  A
C929        H939   1.083       .  S
C930        C935   1.475       .  S
C930        C931   1.414       .  A
C931        C932   1.403       .  A
C931        C936   1.519       .  S
C932        C933   1.404       .  A
C932        H937   1.083       .  S
C933        C934   1.422       .  A
C934        C938   1.521       .  S
C935        C940   1.414       .  A
C935        C944   1.399       .  A
C936        F952   1.382       .  S
C936        F953   1.381       .  S
C936        F954   1.385       .  S
C938        F949   1.385       .  S
C938        F950   1.383   1_565  S
C938        F951   1.383       .  S
C940        C941   1.403       .  A
C940        C945   1.521       .  S
C941        C942   1.403       .  A
C941        H946   1.082       .  S
C942        C943   1.419       .  A
C943        C944   1.404       .  A
C943        C947   1.519   1_565  S
C944        H948   1.084   1_565  S
C945        F958   1.385       .  S
C945        F959   1.382       .  S
C945        F960   1.382       .  S
C947        F955   1.385       .  S
C947        F956   1.384       .  S
C947        F957   1.382       .  S
C961        C962   1.402       .  A
C961        C966   1.409       .  A
C961        H971   1.083       .  S
C962        C967   1.485       .  S
C962        C963   1.414       .  A
C963        C964   1.405       .  A
C963        C968   1.520       .  S
C964        C965   1.407       .  A
C964        H969   1.083       .  S
C965        C966   1.422       .  A
C966        C970   1.520       .  S
C967        C972   1.413       .  A
C967        C976   1.398       .  A
C968        F984   1.382       .  S
C968        F985   1.382       .  S
C968        F986   1.384       .  S
C970        F981   1.385       .  S
C970        F982   1.383       .  S
C970        F983   1.383       .  S
C972        C973   1.408       .  A
C972        C977   1.520       .  S
C973        C974   1.410       .  A
C973        H978   1.082       .  S
C974        C975   1.429       .  A
C975        C976   1.408       .  A
C975        C979   1.522       .  S
C976        H980   1.083       .  S
C977        F990   1.384       .  S
C977        F991   1.382       .  S
C977        F992   1.382       .  S
C979        F987   1.385       .  S
C979        F988   1.383       .  S
C979        F989   1.383       .  S
C993        C994   1.405       .  A
C993        C998   1.417       .  A
C993       H1003   1.083       .  S
C994        C999   1.490       .  S
C994        C995   1.417       .  A
C995        C996   1.401       .  A
C995       C1000   1.524       .  S
C996        C997   1.406       .  A
C996       H1001   1.083       .  S
C997        C998   1.422       .  A
C998       C1002   1.518       .  S
C999       C1004   1.415       .  A
C999       C1008   1.405       .  A
C1000      F1016   1.382       .  S
C1000      F1017   1.383       .  S
C1000      F1018   1.384       .  S
C1002      F1013   1.384       .  S
C1002      F1014   1.385       .  S
C1002      F1015   1.382       .  S
C1004      C1005   1.406       .  A
C1004      C1009   1.518       .  S
C1005      C1006   1.404       .  A
C1005      H1010   1.084       .  S
C1006      C1007   1.414       .  A
C1007      C1008   1.411       .  A
C1007      C1011   1.515       .  S
C1008      H1012   1.083       .  S
C1009      F1022   1.385       .  S
C1009      F1023   1.383       .  S
C1009      F1024   1.383       .  S
C1011      F1019   1.385       .  S
C1011      F1020   1.383       .  S
C1011      F1021   1.383       .  S
C1025      C1026   1.400       .  A
C1025      C1030   1.412       .  A
C1025      H1035   1.083       .  S
C1026      C1031   1.485       .  S
C1026      C1027   1.414       .  A
C1027      C1028   1.403       .  A
C1027      C1032   1.523       .  S
C1028      C1029   1.410       .  A
C1028      H1033   1.082       .  S
C1029      C1030   1.426       .  A
C1030      C1034   1.519       .  S
C1031      C1036   1.416       .  A
C1031      C1040   1.404       .  A
C1032      F1048   1.382       .  S
C1032      F1049   1.383       .  S
C1032      F1050   1.385       .  S
C1034      F1045   1.383       .  S
C1034      F1046   1.385       .  S
C1034      F1047   1.383       .  S
C1036      C1037   1.405       .  A
C1036      C1041   1.519       .  S
C1037      C1038   1.400       .  A
C1037      H1042   1.083       .  S
C1038      C1039   1.415       .  A
C1039      C1040   1.409       .  A
C1039      C1043   1.517       .  S
C1040      H1044   1.083       .  S
C1041      F1054   1.384       .  S
C1041      F1055   1.382       .  S
C1041      F1056   1.383       .  S
C1043      F1051   1.385       .  S
C1043      F1052   1.383       .  S
C1043      F1053   1.382       .  S
C1057      C1058   1.401       .  A
C1057      C1062   1.408       .  A
C1057      H1067   1.083       .  S
C1058      C1063   1.482       .  S
C1058      C1059   1.411       .  A
C1059      C1060   1.405   1_554  A
C1059      C1064   1.520       .  S
C1060      C1061   1.410       .  A
C1060      H1065   1.082       .  S
C1061      C1062   1.425   1_556  A
C1062      C1066   1.521       .  S
C1063      C1068   1.411       .  A
C1063      C1072   1.402       .  A
C1064      F1080   1.382       .  S
C1064      F1081   1.382       .  S
C1064      F1082   1.384   1_554  S
C1066      F1077   1.384       .  S
C1066      F1078   1.385       .  S
C1066      F1079   1.383       .  S
C1068      C1069   1.402       .  A
C1068      C1073   1.521       .  S
C1069      C1070   1.410       .  A
C1069      H1074   1.083       .  S
C1070      C1071   1.423       .  A
C1071      C1072   1.411       .  A
C1071      C1075   1.519       .  S
C1072      H1076   1.083       .  S
C1073      F1086   1.384       .  S
C1073      F1087   1.382       .  S
C1073      F1088   1.382       .  S
C1075      F1083   1.383       .  S
C1075      F1084   1.383       .  S
C1075      F1085   1.385       .  S
C1089      C1090   1.399       .  A
C1089      C1094   1.403       .  A
C1089      H1099   1.083       .  S
C1090      C1095   1.478       .  S
C1090      C1091   1.414       .  A
C1091      C1092   1.405       .  A
C1091      C1096   1.520       .  S
C1092      C1093   1.407       .  A
C1092      H1097   1.083       .  S
C1093      C1094   1.422       .  A
C1094      C1098   1.520       .  S
C1095      C1100   1.412       .  A
C1095      C1104   1.396       .  A
C1096      F1112   1.382       .  S
C1096      F1113   1.383       .  S
C1096      F1114   1.384       .  S
C1098      F1109   1.385       .  S
C1098      F1110   1.382       .  S
C1098      F1111   1.384       .  S
C1100      C1101   1.404       .  A
C1100      C1105   1.521       .  S
C1101      C1102   1.411       .  A
C1101      H1106   1.082       .  S
C1102      C1103   1.430       .  A
C1103      C1104   1.404       .  A
C1103      C1107   1.523       .  S
C1104      H1108   1.083       .  S
C1105      F1118   1.384       .  S
C1105      F1119   1.382       .  S
C1105      F1120   1.382       .  S
C1107      F1115   1.385       .  S
C1107      F1116   1.383       .  S
C1107      F1117   1.384       .  S
C1121      C1122   1.405       .  A
C1121      C1126   1.415       .  A
C1121      H1131   1.083       .  S
C1122      C1127   1.489       .  S
C1122      C1123   1.415       .  A
C1123      C1124   1.404       .  A
C1123      C1128   1.521       .  S
C1124      C1125   1.406       .  A
C1124      H1129   1.083       .  S
C1125      C1126   1.419       .  A
C1126      C1130   1.516       .  S
C1127      C1132   1.416       .  A
C1127      C1136   1.406       .  A
C1128      F1144   1.382       .  S
C1128      F1145   1.383       .  S
C1128      F1146   1.384       .  S
C1130      F1141   1.384       .  S
C1130      F1142   1.383       .  S
C1130      F1143   1.383       .  S
C1132      C1133   1.404       .  A
C1132      C1137   1.521       .  S
C1133      C1134   1.405       .  A
C1133      H1138   1.084       .  S
C1134      C1135   1.416       .  A
C1135      C1136   1.414       .  A
C1135      C1139   1.516       .  S
C1136      H1140   1.083       .  S
C1137      F1150   1.385       .  S
C1137      F1151   1.382       .  S
C1137      F1152   1.383       .  S
C1139      F1147   1.384       .  S
C1139      F1148   1.383       .  S
C1139      F1149   1.383       .  S
C1153      C1154   1.397       .  A
C1153      C1158   1.406       .  A
C1153      H1163   1.083       .  S
C1154      C1159   1.482       .  S
C1154      C1155   1.413       .  A
C1155      C1156   1.407       .  A
C1155      C1160   1.520       .  S
C1156      C1157   1.411       .  A
C1156      H1161   1.082       .  S
C1157      C1158   1.429       .  A
C1158      C1162   1.522       .  S
C1159      C1164   1.411       .  A
C1159      C1168   1.400       .  A
C1160      F1176   1.382       .  S
C1160      F1177   1.382       .  S
C1160      F1178   1.385       .  S
C1162      F1173   1.383       .  S
C1162      F1174   1.385       .  S
C1162      F1175   1.384       .  S
C1164      C1165   1.402       .  A
C1164      C1169   1.521       .  S
C1165      C1166   1.411       .  A
C1165      H1170   1.082       .  S
C1166      C1167   1.429       .  A
C1167      C1168   1.411       .  A
C1167      C1171   1.521       .  S
C1168      H1172   1.083       .  S
C1169      F1182   1.384       .  S
C1169      F1183   1.382       .  S
C1169      F1184   1.382       .  S
C1171      F1179   1.383       .  S
C1171      F1180   1.383       .  S
C1171      F1181   1.385       .  S
C1185      C1186   1.406       .  A
C1185      C1190   1.413       .  A
C1185      H1195   1.083       .  S
C1186      C1191   1.484       .  S
C1186      C1187   1.418       .  A
C1187      C1188   1.401       .  A
C1187      C1192   1.519       .  S
C1188      C1189   1.403       .  A
C1188      H1193   1.085       .  S
C1189      C1190   1.416       .  A
C1190      C1194   1.516       .  S
C1191      C1196   1.414       .  A
C1191      C1200   1.396       .  A
C1192      F1208   1.383       .  S
C1192      F1209   1.381       .  S
C1192      F1210   1.384       .  S
C1194      F1205   1.384       .  S
C1194      F1206   1.383       .  S
C1194      F1207   1.383       .  S
C1196      C1197   1.416       .  A
C1196      C1201   1.515       .  S
C1197      C1198   1.409       .  A
C1197      H1202   1.083       .  S
C1198      C1199   1.424       .  A
C1199      C1200   1.399       .  A
C1199      C1203   1.517       .  S
C1200      H1204   1.084       .  S
C1201      F1214   1.384       .  S
C1201      F1215   1.383       .  S
C1201      F1216   1.383       .  S
C1203      F1211   1.385       .  S
C1203      F1212   1.378       .  S
C1203      F1213   1.383       .  S
C1217      C1218   1.400       .  A
C1217      C1222   1.408       .  A
C1217      H1227   1.083       .  S
C1218      C1223   1.484       .  S
C1218      C1219   1.413       .  A
C1219      C1220   1.406       .  A
C1219      C1224   1.521       .  S
C1220      C1221   1.410       .  A
C1220      H1225   1.082       .  S
C1221      C1222   1.424       .  A
C1222      C1226   1.519       .  S
C1223      C1228   1.413       .  A
C1223      C1232   1.397       .  A
C1224      F1240   1.382       .  S
C1224      F1241   1.382       .  S
C1224      F1242   1.385       .  S
C1226      F1237   1.383       .  S
C1226      F1238   1.385       .  S
C1226      F1239   1.384       .  S
C1228      C1229   1.408       .  A
C1228      C1233   1.520       .  S
C1229      C1230   1.410       .  A
C1229      H1234   1.082       .  S
C1230      C1231   1.430       .  A
C1231      C1232   1.407       .  A
C1231      C1235   1.523       .  S
C1232      H1236   1.083       .  S
C1233      F1246   1.385       .  S
C1233      F1247   1.382       .  S
C1233      F1248   1.382       .  S
C1235      F1243   1.385       .  S
C1235      F1244   1.382       .  S
C1235      F1245   1.383       .  S
C1249      C1250   1.404       .  A
C1249      C1254   1.397       .  A
C1249      H1259   1.083       .  S
C1250      C1255   1.478   1_554  S
C1250      C1251   1.417       .  A
C1251      C1252   1.406       .  A
C1251      C1256   1.516   1_545  S
C1252      C1253   1.403       .  A
C1252      H1257   1.085       .  S
C1253      C1254   1.415       .  A
C1254      C1258   1.522       .  S
C1255      C1260   1.416       .  A
C1255      C1264   1.403       .  A
C1256      F1272   1.383   1_554  S
C1256      F1273   1.382   1_564  S
C1256      F1274   1.383       .  S
C1258      F1269   1.385       .  S
C1258      F1270   1.382       .  S
C1258      F1271   1.383       .  S
C1260      C1261   1.399       .  A
C1260      C1265   1.515   1_556  S
C1261      C1262   1.399       .  A
C1261      H1266   1.084       .  S
C1262      C1263   1.415       .  A
C1263      C1264   1.403       .  A
C1263      C1267   1.518       .  S
C1264      H1268   1.083       .  S
C1265      F1278   1.383       .  S
C1265      F1279   1.383       .  S
C1265      F1280   1.383       .  S
C1267      F1275   1.385       .  S
C1267      F1276   1.381       .  S
C1267      F1277   1.383       .  S
C1281      C1282   1.401   1_545  A
C1281      C1286   1.404       .  A
C1281      H1291   1.083       .  S
C1282      C1287   1.475       .  S
C1282      C1283   1.413       .  A
C1283      C1284   1.402       .  A
C1283      C1288   1.520       .  S
C1284      C1285   1.404   1_565  A
C1284      H1289   1.083       .  S
C1285      C1286   1.418       .  A
C1286      C1290   1.521       .  S
C1287      C1292   1.412   1_556  A
C1287      C1296   1.401   1_565  A
C1288      F1304   1.382       .  S
C1288      F1305   1.382       .  S
C1288      F1306   1.384       .  S
C1290      F1301   1.382       .  S
C1290      F1302   1.385       .  S
C1290      F1303   1.384       .  S
C1292      C1293   1.403       .  A
C1292      C1297   1.520       .  S
C1293      C1294   1.406   1_565  A
C1293      H1298   1.083       .  S
C1294      C1295   1.419       .  A
C1295      C1296   1.403   1_554  A
C1295      C1299   1.520       .  S
C1296      H1300   1.084       .  S
C1297      F1310   1.385       .  S
C1297      F1311   1.382   1_564  S
C1297      F1312   1.382   1_554  S
C1299      F1307   1.382       .  S
C1299      F1308   1.384       .  S
C1299      F1309   1.385   1_554  S
C1313      C1314   1.401       .  A
C1313      C1318   1.410       .  A
C1313      H1323   1.083       .  S
C1314      C1319   1.484       .  S
C1314      C1315   1.413   1_565  A
C1315      C1316   1.405       .  A
C1315      C1320   1.520       .  S
C1316      C1317   1.409       .  A
C1316      H1321   1.083       .  S
C1317      C1318   1.424   1_545  A
C1318      C1322   1.520       .  S
C1319      C1324   1.414       .  A
C1319      C1328   1.404       .  A
C1320      F1336   1.383       .  S
C1320      F1337   1.383       .  S
C1320      F1338   1.384       .  S
C1322      F1333   1.385       .  S
C1322      F1334   1.383       .  S
C1322      F1335   1.383       .  S
C1324      C1325   1.402   1_565  A
C1324      C1329   1.521   1_565  S
C1325      C1326   1.406   1_545  A
C1325      H1330   1.083       .  S
C1326      C1327   1.419       .  A
C1327      C1328   1.412       .  A
C1327      C1331   1.518       .  S
C1328      H1332   1.083       .  S
C1329      F1342   1.384       .  S
C1329      F1343   1.382   1_545  S
C1329      F1344   1.383       .  S
C1331      F1339   1.385       .  S
C1331      F1340   1.384       .  S
C1331      F1341   1.382   1_565  S
C1345      C1346   1.406       .  A
C1345      C1350   1.412       .  A
C1345      H1355   1.083       .  S
C1346      C1351   1.496       .  S
C1346      C1347   1.419       .  A
C1347      C1348   1.409       .  A
C1347      C1352   1.519       .  S
C1348      C1349   1.402       .  A
C1348      H1353   1.083       .  S
C1349      C1350   1.414       .  A
C1350      C1354   1.515       .  S
C1351      C1356   1.419       .  A
C1351      C1360   1.407       .  A
C1352      F1368   1.382       .  S
C1352      F1369   1.383       .  S
C1352      F1370   1.384       .  S
C1354      F1365   1.383       .  S
C1354      F1366   1.385       .  S
C1354      F1367   1.383       .  S
C1356      C1357   1.403       .  A
C1356      C1361   1.524       .  S
C1357      C1358   1.406       .  A
C1357      H1362   1.083       .  S
C1358      C1359   1.422       .  A
C1359      C1360   1.417       .  A
C1359      C1363   1.518       .  S
C1360      H1364   1.082       .  S
C1361      F1374   1.385       .  S
C1361      F1375   1.381       .  S
C1361      F1376   1.383       .  S
C1363      F1371   1.385       .  S
C1363      F1372   1.383       .  S
C1363      F1373   1.384       .  S
C1377      C1378   1.401       .  A
C1377      C1382   1.411       .  A
C1377      H1387   1.083       .  S
C1378      C1383   1.493       .  S
C1378      C1379   1.417       .  A
C1379      C1380   1.411       .  A
C1379      C1384   1.520       .  S
C1380      C1381   1.408       .  A
C1380      H1385   1.082       .  S
C1381      C1382   1.425       .  A
C1382      C1386   1.521       .  S
C1383      C1388   1.419       .  A
C1383      C1392   1.401       .  A
C1384      F1400   1.382       .  S
C1384      F1401   1.381       .  S
C1384      F1402   1.385       .  S
C1386      F1397   1.383       .  S
C1386      F1398   1.385       .  S
C1386      F1399   1.384       .  S
C1388      C1389   1.413       .  A
C1388      C1393   1.519       .  S
C1389      C1390   1.405       .  A
C1389      H1394   1.083       .  S
C1390      C1391   1.420       .  A
C1391      C1392   1.408       .  A
C1391      C1395   1.519       .  S
C1392      H1396   1.083       .  S
C1393      F1406   1.385       .  S
C1393      F1407   1.382       .  S
C1393      F1408   1.381       .  S
C1395      F1403   1.382       .  S
C1395      F1404   1.382       .  S
C1395      F1405   1.385       .  S
C1409      C1410   1.404       .  A
C1409      C1414   1.413       .  A
C1409      H1419   1.083       .  S
C1410      C1415   1.485       .  S
C1410      C1411   1.413       .  A
C1411      C1412   1.402       .  A
C1411      C1416   1.521       .  S
C1412      C1413   1.408       .  A
C1412      H1417   1.083       .  S
C1413      C1414   1.421       .  A
C1414      C1418   1.516       .  S
C1415      C1420   1.415       .  A
C1415      C1424   1.403       .  A
C1416      F1432   1.383       .  S
C1416      F1433   1.382       .  S
C1416      F1434   1.385       .  S
C1418      F1429   1.379       .  S
C1418      F1430   1.385       .  S
C1418      F1431   1.383       .  S
C1420      C1421   1.403       .  A
C1420      C1425   1.522       .  S
C1421      C1422   1.405       .  A
C1421      H1426   1.083       .  S
C1422      C1423   1.421       .  A
C1423      C1424   1.414       .  A
C1423      C1427   1.517       .  S
C1424      H1428   1.083       .  S
C1425      F1438   1.384       .  S
C1425      F1439   1.382       .  S
C1425      F1440   1.382       .  S
C1427      F1435   1.385       .  S
C1427      F1436   1.383       .  S
C1427      F1437   1.383       .  S
C1441      C1442   1.400       .  A
C1441      C1446   1.406       .  A
C1441      H1451   1.083       .  S
C1442      C1447   1.483       .  S
C1442      C1443   1.416       .  A
C1443      C1444   1.407       .  A
C1443      C1448   1.519       .  S
C1444      C1445   1.403       .  A
C1444      H1449   1.084       .  S
C1445      C1446   1.420       .  A
C1446      C1450   1.520       .  S
C1447      C1452   1.413       .  A
C1447      C1456   1.401       .  A
C1448      F1464   1.382       .  S
C1448      F1465   1.382       .  S
C1448      F1466   1.383       .  S
C1450      F1461   1.383       .  S
C1450      F1462   1.385       .  S
C1450      F1463   1.382       .  S
C1452      C1453   1.405       .  A
C1452      C1457   1.521       .  S
C1453      C1454   1.410       .  A
C1453      H1458   1.082       .  S
C1454      C1455   1.425       .  A
C1455      C1456   1.409       .  A
C1455      C1459   1.520       .  S
C1456      H1460   1.083       .  S
C1457      F1470   1.385       .  S
C1457      F1471   1.382       .  S
C1457      F1472   1.382       .  S
C1459      F1467   1.385       .  S
C1459      F1468   1.383       .  S
C1459      F1469   1.383       .  S
C1473      C1474   1.404       .  A
C1473      C1478   1.399       .  A
C1473      H1483   1.084       .  S
C1474      C1479   1.479       .  S
C1474      C1475   1.415       .  A
C1475      C1476   1.401       .  A
C1475      C1480   1.517       .  S
C1476      C1477   1.406       .  A
C1476      H1481   1.084       .  S
C1477      C1478   1.418       .  A
C1478      C1482   1.519       .  S
C1479      C1484   1.415       .  A
C1479      C1488   1.404       .  A
C1480      F1496   1.383       .  S
C1480      F1497   1.383       .  S
C1480      F1498   1.383       .  S
C1482      F1493   1.385       .  S
C1482      F1494   1.383       .  S
C1482      F1495   1.384       .  S
C1484      C1485   1.400       .  A
C1484      C1489   1.516       .  S
C1485      C1486   1.405       .  A
C1485      H1490   1.084       .  S
C1486      C1487   1.418       .  A
C1487      C1488   1.398       .  A
C1487      C1491   1.518       .  S
C1488      H1492   1.084       .  S
C1489      F1502   1.383       .  S
C1489      F1503   1.383       .  S
C1489      F1504   1.383       .  S
C1491      F1499   1.385       .  S
C1491      F1500   1.383       .  S
C1491      F1501   1.383       .  S
C1505      C1506   1.397   1_455  A
C1505      C1510   1.401       .  A
C1505      H1515   1.084       .  S
C1506      C1511   1.473       .  S
C1506      C1507   1.413       .  A
C1507      C1508   1.405       .  A
C1507      C1512   1.519       .  S
C1508      C1509   1.405       .  A
C1508      H1513   1.083       .  S
C1509      C1510   1.419   1_655  A
C1510      C1514   1.516       .  S
C1511      C1516   1.412       .  A
C1511      C1520   1.400       .  A
C1512      F1528   1.383       .  S
C1512      F1529   1.382       .  S
C1512      F1530   1.384       .  S
C1514      F1525   1.382       .  S
C1514      F1526   1.385       .  S
C1514      F1527   1.382       .  S
C1516      C1517   1.401       .  A
C1516      C1521   1.522       .  S
C1517      C1518   1.404   1_554  A
C1517      H1522   1.064       .  S
C1518      C1519   1.420       .  A
C1519      C1520   1.407   1_556  A
C1519      C1523   1.519       .  S
C1520      H1524   1.080       .  S
C1521      F1534   1.384       .  S
C1521      F1535   1.382       .  S
C1521      F1536   1.382       .  S
C1523      F1531   1.385   1_655  S
C1523      F1532   1.383   1_655  S
C1523      F1533   1.383       .  S
C1537      C1538   1.398       .  A
C1537      C1542   1.407       .  A
C1537      H1547   1.083   1_655  S
C1538      C1543   1.480       .  S
C1538      C1539   1.413       .  A
C1539      C1540   1.403       .  A
C1539      C1544   1.522       .  S
C1540      C1541   1.409       .  A
C1540      H1545   1.081       .  S
C1541      C1542   1.427       .  A
C1542      C1546   1.521   1_655  S
C1543      C1548   1.412   1_655  A
C1543      C1552   1.401       .  A
C1544      F1560   1.382       .  S
C1544      F1561   1.382       .  S
C1544      F1562   1.385       .  S
C1546      F1557   1.383       .  S
C1546      F1558   1.385       .  S
C1546      F1559   1.384   1_455  S
C1548      C1549   1.403       .  A
C1548      C1553   1.520       .  S
C1549      C1550   1.408   1_455  A
C1549      H1554   1.083       .  S
C1550      C1551   1.422       .  A
C1551      C1552   1.408       .  A
C1551      C1555   1.520       .  S
C1552      H1556   1.083       .  S
C1553      F1566   1.384       .  S
C1553      F1567   1.382       .  S
C1553      F1568   1.382       .  S
C1555      F1563   1.383       .  S
C1555      F1564   1.383       .  S
C1555      F1565   1.385       .  S
C1569      C1570   1.398       .  A
C1569      C1574   1.402       .  A
C1569      H1579   1.084       .  S
C1570      C1575   1.489       .  S
C1570      C1571   1.416       .  A
C1571      C1572   1.415       .  A
C1571      C1576   1.516       .  S
C1572      C1573   1.408       .  A
C1572      H1577   1.083       .  S
C1573      C1574   1.426       .  A
C1574      C1578   1.522       .  S
C1575      C1580   1.420       .  A
C1575      C1584   1.403       .  A
C1576      F1592   1.382       .  S
C1576      F1593   1.383       .  S
C1576      F1594   1.384       .  S
C1578      F1589   1.385       .  S
C1578      F1590   1.383       .  S
C1578      F1591   1.384       .  S
C1580      C1581   1.409       .  A
C1580      C1585   1.515       .  S
C1581      C1582   1.402       .  A
C1581      H1586   1.085       .  S
C1582      C1583   1.417       .  A
C1583      C1584   1.406       .  A
C1583      C1587   1.517       .  S
C1584      H1588   1.083       .  S
C1585      F1598   1.384       .  S
C1585      F1599   1.383       .  S
C1585      F1600   1.383       .  S
C1587      F1595   1.385       .  S
C1587      F1596   1.381       .  S
C1587      F1597   1.383       .  S
C1601      C1602   1.400       .  A
C1601      C1606   1.408       .  A
C1601      H1611   1.083       .  S
C1602      C1607   1.485       .  S
C1602      C1603   1.415       .  A
C1603      C1604   1.407       .  A
C1603      C1608   1.520       .  S
C1604      C1605   1.406       .  A
C1604      H1609   1.083       .  S
C1605      C1606   1.422       .  A
C1606      C1610   1.520       .  S
C1607      C1612   1.415       .  A
C1607      C1616   1.403       .  A
C1608      F1624   1.382       .  S
C1608      F1625   1.381       .  S
C1608      F1626   1.385       .  S
C1610      F1621   1.385       .  S
C1610      F1622   1.383       .  S
C1610      F1623   1.382       .  S
C1612      C1613   1.408       .  A
C1612      C1617   1.519       .  S
C1613      C1614   1.404       .  A
C1613      H1618   1.083       .  S
C1614      C1615   1.413       .  A
C1615      C1616   1.408       .  A
C1615      C1619   1.515       .  S
C1616      H1620   1.083       .  S
C1617      F1630   1.385       .  S
C1617      F1631   1.382       .  S
C1617      F1632   1.381       .  S
C1619      F1627   1.383       .  S
C1619      F1628   1.382       .  S
C1619      F1629   1.383       .  S
C1633      C1634   1.399       .  A
C1633      C1638   1.409       .  A
C1633      H1643   1.083       .  S
C1634      C1639   1.484       .  S
C1634      C1635   1.411       .  A
C1635      C1636   1.405       .  A
C1635      C1640   1.521       .  S
C1636      C1637   1.414       .  A
C1636      H1641   1.082       .  S
C1637      C1638   1.428       .  A
C1638      C1642   1.521       .  S
C1639      C1644   1.413       .  A
C1639      C1648   1.403       .  A
C1640      F1656   1.382       .  S
C1640      F1657   1.382       .  S
C1640      F1658   1.385       .  S
C1642      F1653   1.384       .  S
C1642      F1654   1.385       .  S
C1642      F1655   1.383       .  S
C1644      C1645   1.404       .  A
C1644      C1649   1.521       .  S
C1645      C1646   1.408       .  A
C1645      H1650   1.083       .  S
C1646      C1647   1.421       .  A
C1647      C1648   1.409       .  A
C1647      C1651   1.520       .  S
C1648      H1652   1.083       .  S
C1649      F1662   1.384       .  S
C1649      F1663   1.382       .  S
C1649      F1664   1.382       .  S
C1651      F1659   1.385       .  S
C1651      F1660   1.383       .  S
C1651      F1661   1.383       .  S
C1665      C1666   1.401       .  A
C1665      C1670   1.413       .  A
C1665      H1675   1.083       .  S
C1666      C1671   1.479       .  S
C1666      C1667   1.413       .  A
C1667      C1668   1.399       .  A
C1667      C1672   1.526   1_554  S
C1668      C1669   1.411       .  A
C1668      H1673   1.081       .  S
C1669      C1670   1.428       .  A
C1670      C1674   1.520       .  S
C1671      C1676   1.413   1_554  A
C1671      C1680   1.397       .  A
C1672      F1688   1.382   1_556  S
C1672      F1689   1.380       .  S
C1672      F1690   1.385   1_556  S
C1674      F1685   1.385       .  S
C1674      F1686   1.384       .  S
C1674      F1687   1.383       .  S
C1676      C1677   1.412       .  A
C1676      C1681   1.518       .  S
C1677      C1678   1.408       .  A
C1677      H1682   1.082       .  S
C1678      C1679   1.417       .  A
C1679      C1680   1.398   1_556  A
C1679      C1683   1.511   1_556  S
C1680      H1684   1.085       .  S
C1681      F1694   1.384       .  S
C1681      F1695   1.383       .  S
C1681      F1696   1.382       .  S
C1683      F1691   1.384       .  S
C1683      F1692   1.383   1_554  S
C1683      F1693   1.383       .  S
C1697      C1698   1.403       .  A
C1697      C1702   1.412       .  A
C1697      H1707   1.083       .  S
C1698      C1703   1.487       .  S
C1698      C1699   1.416       .  A
C1699      C1700   1.403       .  A
C1699      C1704   1.521       .  S
C1700      C1701   1.405       .  A
C1700      H1705   1.083       .  S
C1701      C1702   1.421       .  A
C1702      C1706   1.518       .  S
C1703      C1708   1.417       .  A
C1703      C1712   1.405       .  A
C1704      F1720   1.382       .  S
C1704      F1721   1.383       .  S
C1704      F1722   1.385       .  S
C1706      F1717   1.384       .  S
C1706      F1718   1.384       .  S
C1706      F1719   1.383       .  S
C1708      C1709   1.402       .  A
C1708      C1713   1.521       .  S
C1709      C1710   1.402       .  A
C1709      H1714   1.083       .  S
C1710      C1711   1.417       .  A
C1711      C1712   1.413       .  A
C1711      C1715   1.516       .  S
C1712      H1716   1.083       .  S
C1713      F1726   1.384       .  S
C1713      F1727   1.382       .  S
C1713      F1728   1.383       .  S
C1715      F1723   1.385       .  S
C1715      F1724   1.382       .  S
C1715      F1725   1.381       .  S
C1729      C1730   1.404       .  A
C1729      C1734   1.411       .  A
C1729      H1739   1.083       .  S
C1730      C1735   1.486       .  S
C1730      C1731   1.415       .  A
C1731      C1732   1.405       .  A
C1731      C1736   1.520       .  S
C1732      C1733   1.404       .  A
C1732      H1737   1.083       .  S
C1733      C1734   1.418       .  A
C1734      C1738   1.519       .  S
C1735      C1740   1.418       .  A
C1735      C1744   1.403       .  A
C1736      F1752   1.382       .  S
C1736      F1753   1.383       .  S
C1736      F1754   1.384       .  S
C1738      F1749   1.382       .  S
C1738      F1750   1.385       .  S
C1738      F1751   1.383       .  S
C1740      C1741   1.407       .  A
C1740      C1745   1.519       .  S
C1741      C1742   1.401       .  A
C1741      H1746   1.083       .  S
C1742      C1743   1.414       .  A
C1743      C1744   1.407       .  A
C1743      C1747   1.518       .  S
C1744      H1748   1.083       .  S
C1745      F1758   1.384       .  S
C1745      F1759   1.382       .  S
C1745      F1760   1.383       .  S
C1747      F1755   1.384       .  S
C1747      F1756   1.383       .  S
C1747      F1757   1.383       .  S
C1761      C1762   1.403       .  A
C1761      C1766   1.404       .  A
C1761      H1771   1.083       .  S
C1762      C1767   1.486       .  S
C1762      C1763   1.417       .  A
C1763      C1764   1.404       .  A
C1763      C1768   1.517       .  S
C1764      C1765   1.406       .  A
C1764      H1769   1.084       .  S
C1765      C1766   1.423       .  A
C1766      C1770   1.520       .  S
C1767      C1772   1.418       .  A
C1767      C1776   1.402       .  A
C1768      F1784   1.383       .  S
C1768      F1785   1.382       .  S
C1768      F1786   1.384       .  S
C1770      F1781   1.383       .  S
C1770      F1782   1.385       .  S
C1770      F1783   1.383       .  S
C1772      C1773   1.406       .  A
C1772      C1777   1.515       .  S
C1773      C1774   1.404       .  A
C1773      H1778   1.084       .  S
C1774      C1775   1.419       .  A
C1775      C1776   1.401       .  A
C1775      C1779   1.519       .  S
C1776      H1780   1.084       .  S
C1777      F1790   1.384       .  S
C1777      F1791   1.383       .  S
C1777      F1792   1.383       .  S
C1779      F1787   1.383       .  S
C1779      F1788   1.384       .  S
C1779      F1789   1.385       .  S
C1793      C1794   1.398       .  A
C1793      C1798   1.405       .  A
C1793      H1803   1.083       .  S
C1794      C1799   1.479       .  S
C1794      C1795   1.414       .  A
C1795      C1796   1.404       .  A
C1795      C1800   1.520       .  S
C1796      C1797   1.407       .  A
C1796      H1801   1.082       .  S
C1797      C1798   1.425       .  A
C1798      C1802   1.521       .  S
C1799      C1804   1.417       .  A
C1799      C1808   1.399       .  A
C1800      F1816   1.382       .  S
C1800      F1817   1.383       .  S
C1800      F1818   1.385       .  S
C1802      F1813   1.385       .  S
C1802      F1814   1.383       .  S
C1802      F1815   1.383       .  S
C1804      C1805   1.406       .  A
C1804      C1809   1.520       .  S
C1805      C1806   1.403       .  A
C1805      H1810   1.083       .  S
C1806      C1807   1.419       .  A
C1807      C1808   1.403       .  A
C1807      C1811   1.520       .  S
C1808      H1812   1.083       .  S
C1809      F1822   1.385       .  S
C1809      F1823   1.382       .  S
C1809      F1824   1.383       .  S
C1811      F1819   1.385       .  S
C1811      F1820   1.383       .  S
C1811      F1821   1.383       .  S
C1825      C1826   1.403       .  A
C1825      C1830   1.409       .  A
C1825      H1835   1.083       .  S
C1826      C1831   1.482       .  S
C1826      C1827   1.413       .  A
C1827      C1828   1.404       .  A
C1827      C1832   1.521       .  S
C1828      C1829   1.407       .  A
C1828      H1833   1.083       .  S
C1829      C1830   1.421       .  A
C1830      C1834   1.519       .  S
C1831      C1836   1.413   1_556  A
C1831      C1840   1.399       .  A
C1832      F1848   1.382       .  S
C1832      F1849   1.381       .  S
C1832      F1850   1.384       .  S
C1834      F1845   1.385       .  S
C1834      F1846   1.383       .  S
C1834      F1847   1.383       .  S
C1836      C1837   1.408       .  A
C1836      C1841   1.518       .  S
C1837      C1838   1.408       .  A
C1837      H1842   1.083       .  S
C1838      C1839   1.424       .  A
C1839      C1840   1.403   1_554  A
C1839      C1843   1.522       .  S
C1840      H1844   1.084       .  S
C1841      F1854   1.385       .  S
C1841      F1855   1.382       .  S
C1841      F1856   1.381   1_554  S
C1843      F1851   1.383       .  S
C1843      F1852   1.383       .  S
C1843      F1853   1.385   1_554  S
C1857      C1858   1.400       .  A
C1857      C1862   1.409       .  A
C1857      H1867   1.083       .  S
C1858      C1863   1.482       .  S
C1858      C1859   1.414       .  A
C1859      C1860   1.402       .  A
C1859      C1864   1.519       .  S
C1860      C1861   1.405       .  A
C1860      H1865   1.081       .  S
C1861      C1862   1.425       .  A
C1862      C1866   1.520       .  S
C1863      C1868   1.413       .  A
C1863      C1872   1.400       .  A
C1864      F1880   1.382       .  S
C1864      F1881   1.382       .  S
C1864      F1882   1.384       .  S
C1866      F1877   1.383       .  S
C1866      F1878   1.385       .  S
C1866      F1879   1.383       .  S
C1868      C1869   1.406       .  A
C1868      C1873   1.519       .  S
C1869      C1870   1.407       .  A
C1869      H1874   1.083       .  S
C1870      C1871   1.423       .  A
C1871      C1872   1.406       .  A
C1871      C1875   1.522       .  S
C1872      H1876   1.083       .  S
C1873      F1886   1.384       .  S
C1873      F1887   1.382       .  S
C1873      F1888   1.382       .  S
C1875      F1883   1.383       .  S
C1875      F1884   1.383       .  S
C1875      F1885   1.385       .  S
