geometry optimzed in LAMMPS
_audit_creation_date              2020-12-01 
_audit_creation_method            'lammps2cif' 
_symmetry_space_group_name_H-M    'P1' 
_symmetry_Int_Tables_number       1 
_symmetry_cell_setting            triclinic 
loop_ 
_symmetry_equiv_pos_as_xyz 
  x,y,z 
_cell_length_a                    42.11283467 
_cell_length_b                    42.20495361929364 
_cell_length_c                    35.472919803473374 
_cell_angle_alpha                 90.15445995414858 
_cell_angle_beta                  89.73938791687749 
_cell_angle_gamma                 120.51047750343676 
loop_ 
_atom_site_label 
_atom_site_type_symbol 
_atom_site_fract_x 
_atom_site_fract_y 
_atom_site_fract_z 
_atom_site_charge 
O1          O  0.53933025  0.82895882  0.27695752    -0.83600
C2          C  0.45440117  0.67621684  0.27090830     0.95800
O3          O  0.46226217  0.69635101  0.24175243    -0.72700
O4          O  0.45103909  0.75101396  0.25083072    -0.76300
Al5        Al  0.49272520  0.74852766  0.23549527     1.49000
C6          C  0.44589529  0.76843327  0.27659952     0.91000
O7          O  0.48854022  0.75319481  0.35240117    -0.82500
O8          O  0.57692828  0.76367594  0.29794409    -0.76100
Al9        Al  0.51539855  0.78926491  0.31283329     1.90100
O10         O  0.52358223  0.72967617  0.34981170    -0.75100
O11         O  0.53449104  0.70825287  0.24981787    -0.75000
O12         O  0.47732231  0.68460929  0.29765626    -0.80600
O13         O  0.53138020  0.74554092  0.21054077    -0.78800
O14         O  0.51192752  0.75477555  0.28124898    -1.15000
O15         O  0.51866219  0.79877314  0.22340405    -0.74200
C16         C  0.53548785  0.82854418  0.24148622     0.96500
C17         C  0.49807462  0.73164103  0.36566848     0.92900
Al18       Al  0.52702416  0.72436025  0.29719725     1.55600
O19         O  0.46955258  0.78458766  0.30180679    -0.78800
C20         C  0.53734287  0.71977792  0.21678497     0.97100
C21         C  0.58740350  0.79290059  0.31714218     0.92000
O22         O  0.56424257  0.80157813  0.32930458    -0.84100
O23         O  0.76055262  0.87034424  0.35980613    -0.83600
C24         C  0.87228300  0.99553891  0.42818598     0.95800
O25         O  0.84434276  0.99457406  0.41341678    -0.72700
O26         O  0.82544307  0.96888597  0.34730406    -0.76300
Al27       Al  0.79972529  0.95427101  0.39278675     1.49000
C28         C  0.83333966  0.95338230  0.32210498     0.91000
O29         O  0.86146322  0.90226409  0.37566152    -0.82500
O30         O  0.78871940  0.87228084  0.45900428    -0.76100
Al31       Al  0.81077189  0.88851039  0.36977870     1.90100
O32         O  0.86000873  0.90195662  0.43719818    -0.75100
O33         O  0.80444867  0.93970259  0.47742538    -0.75000
O34         O  0.87012308  0.96746771  0.44345990    -0.80600
O35         O  0.77130875  0.94845308  0.43709329    -0.78800
O36         O  0.81291960  0.92114132  0.40398664    -1.15000
O37         O  0.75395210  0.91829328  0.36962926    -0.74200
C38         C  0.74093870  0.88509892  0.35938222     0.96500
C39         C  0.87472487  0.90057614  0.40693358     0.92900
Al40       Al  0.82900042  0.92036194  0.45017972     1.55600
O41         O  0.82622925  0.92078740  0.32647267    -0.78800
C42         C  0.78145405  0.94919988  0.47038978     0.97100
C43         C  0.78662435  0.84549498  0.44064249     0.92000
O44         O  0.79558078  0.84901960  0.40600090    -0.84100
O45         O  0.16403456  0.71232922  0.28217296    -0.83600
C46         C  0.31728698  0.78321876  0.27250901     0.95800
O47         O  0.29589906  0.76856393  0.24454182    -0.72700
O48         O  0.24040904  0.70222112  0.25513450    -0.76300
Al49       Al  0.24370840  0.74639665  0.23904417     1.49000
C50         C  0.22322956  0.68005122  0.28143730     0.91000
O51         O  0.24113140  0.74159256  0.35663535    -0.82500
O52         O  0.22986020  0.81697214  0.29931365    -0.76100
Al53       Al  0.20441957  0.73020345  0.31731990     1.90100
O54         O  0.26454311  0.80028829  0.35182279    -0.75100
O55         O  0.28521348  0.82946394  0.25093741    -0.75000
O56         O  0.30919153  0.79789185  0.29944595    -0.80600
O57         O  0.24715231  0.78754227  0.21294074    -0.78800
O58         O  0.23845037  0.76063809  0.28455963    -1.15000
O59         O  0.19329603  0.72164840  0.22790858    -0.74200
C60         C  0.16384062  0.70816368  0.24673520     0.96500
C61         C  0.26250883  0.77351375  0.36902365     0.92900
Al62       Al  0.26925838  0.80709970  0.29895302     1.55600
O63         O  0.20866408  0.68856101  0.30745316    -0.78800
C64         C  0.27359289  0.81956071  0.21811411     0.97100
C65         C  0.20080193  0.79843156  0.31911869     0.92000
O66         O  0.19238788  0.76707282  0.33256379    -0.84100
O67         O  0.12296167  0.89333467  0.35769116    -0.83600
C68         C  0.99770971  0.87899471  0.42613928     0.95800
O69         O  0.99867943  0.85190754  0.41162468    -0.72700
O70         O  0.02467419  0.85853068  0.34547862    -0.76300
Al71       Al  0.03898776  0.84793962  0.39106683     1.49000
C72         C  0.03981735  0.88223826  0.32031979     0.91000
O73         O  0.09225371  0.96276818  0.37356547    -0.82500
O74         O  0.12082461  0.92018762  0.45718608    -0.76100
Al75       Al  0.10521984  0.92547258  0.36774111     1.90100
O76         O  0.09198025  0.96157550  0.43506558    -0.75100
O77         O  0.05268022  0.86803503  0.47552569    -0.75000
O78         O  0.02589600  0.90565169  0.44103344    -0.80600
O79         O  0.04455603  0.82583443  0.43554613    -0.78800
O80         O  0.07226984  0.89482750  0.40203029    -1.15000
O81         O  0.07484831  0.83832248  0.36821535    -0.74200
C82         C  0.10808048  0.85877616  0.35777522     0.96500
C83         C  0.09414174  0.97789319  0.40487851     0.92900
Al84       Al  0.07287848  0.91202154  0.44811437     1.55600
O85         O  0.07258475  0.90823307  0.32447694    -0.78800
C86         C  0.04298170  0.83534004  0.46866021     0.97100
C87         C  0.14780743  0.94537036  0.43902797     0.92000
O88         O  0.14476070  0.95027853  0.40417086    -0.84100
O89         O  0.27891854  0.45928244  0.28402956    -0.83600
C90         C  0.20214087  0.53415308  0.27312644     0.95800
O91         O  0.21710213  0.52817830  0.24488614    -0.72700
O92         O  0.28477448  0.54443330  0.25638295    -0.76300
Al93       Al  0.24215568  0.50117559  0.23993077     1.49000
C94         C  0.30718913  0.55076622  0.28262762     0.91000
O95         O  0.24505049  0.50510039  0.35726289    -0.82500
O96         O  0.17390401  0.41418391  0.29926383    -0.76100
Al97       Al  0.25907929  0.48046464  0.31866897     1.90100
O98         O  0.18763782  0.46474837  0.35169600    -0.75100
O99         O  0.15903499  0.45487424  0.25070145    -0.75000
O100        O  0.18760523  0.51086822  0.29976472    -0.80600
O101        O  0.20255405  0.46123950  0.21361402    -0.78800
O102        O  0.22802376  0.48128088  0.28524499    -1.15000
O103        O  0.26953924  0.47840576  0.22957238    -0.74200
C104        C  0.28334272  0.46319468  0.24855145     0.96500
C105        C  0.21216704  0.49275565  0.36797835     0.92900
Al106      Al  0.18091060  0.46248731  0.29902007     1.55600
O107        O  0.29953103  0.52769490  0.30846283    -0.78800
C108        C  0.16997885  0.45398192  0.21807525     0.97100
C109        C  0.19305262  0.40564848  0.32013761     0.92000
O110        O  0.22362619  0.43041662  0.33417273    -0.84100
O111        O  0.14061359  0.17265604  0.34861592    -0.83600
C112        C  0.05113502  0.20406168  0.44276412     0.95800
O113        O  0.04637496  0.19575334  0.40791618    -0.72700
O114        O  0.10295228  0.23203962  0.36089455    -0.76300
Al115      Al  0.07156780  0.18168329  0.37138315     1.49000
C116        C  0.13743895  0.25333707  0.36153561     0.91000
O117        O  0.17150734  0.22449559  0.43915122    -0.82500
O118        O  0.09300399  0.12440124  0.44391468    -0.76100
Al119      Al  0.15003238  0.19669528  0.39454563     1.90100
O120        O  0.12947950  0.18924148  0.47907542    -0.75100
O121        O  0.03588319  0.13178209  0.43884759    -0.75000
O122        O  0.07611944  0.20265019  0.46119171    -0.80600
O123        O  0.03491541  0.13073954  0.37741612    -0.78800
O124        O  0.10269209  0.18106074  0.40557269    -1.15000
O125        O  0.08929167  0.16665439  0.32822272    -0.74200
C126        C  0.11660472  0.16234417  0.32370174     0.96500
C127        C  0.16199783  0.21349213  0.47223202     0.92900
Al128      Al  0.08552749  0.16393839  0.45163626     1.55600
O129        O  0.15868635  0.24213217  0.37256176    -0.78800
C130        C  0.01963658  0.11725457  0.40865522     0.97100
C131        C  0.11965251  0.12359937  0.42832337     0.92000
O132        O  0.14676860  0.15235412  0.41411497    -0.84100
O133        O  0.53087577  0.10035100  0.48287659    -0.83600
C134        C  0.65592728  0.21166046  0.41326986     0.95800
O135        O  0.65424274  0.18240902  0.42528052    -0.72700
O136        O  0.63045392  0.16288587  0.49251034    -0.76300
Al137      Al  0.61362167  0.13801371  0.44662400     1.49000
C138        C  0.61647690  0.17147745  0.51887439     0.91000
O139        O  0.56460034  0.20151085  0.46988581    -0.82500
O140        O  0.53275784  0.13122301  0.38408607    -0.76100
Al141      Al  0.54991476  0.15067164  0.47385060     1.90100
O142        O  0.56139925  0.20118641  0.40872736    -0.75100
O143        O  0.60030899  0.14824633  0.36366939    -0.75000
O144        O  0.62776908  0.21167812  0.40098810    -0.80600
O145        O  0.60464036  0.11023042  0.40106274    -0.78800
O146        O  0.58144928  0.15298350  0.43826698    -1.15000
O147        O  0.57747369  0.09223404  0.47015179    -0.74200
C148        C  0.54476602  0.08003181  0.48201540     0.96500
C149        C  0.56007485  0.21461183  0.43989076     0.92900
Al150      Al  0.58060969  0.17119688  0.39329680     1.55600
O151        O  0.58383259  0.16512949  0.51607889    -0.78800
C152        C  0.60727192  0.12309964  0.36859559     0.97100
C153        C  0.50588288  0.12845917  0.40300869     0.92000
O154        O  0.50945273  0.13652636  0.43803482    -0.84100
O155        O  0.48394888  0.87554578  0.55704531    -0.83600
C156        C  0.33371800  0.79535006  0.57649708     0.95800
O157        O  0.35647136  0.80264470  0.60337094    -0.72700
O158        O  0.41394653  0.79524605  0.59208638    -0.76300
Al159      Al  0.40885517  0.83550928  0.60683934     1.49000
C160        C  0.42560390  0.78691172  0.56328786     0.91000
O161        O  0.40086513  0.82736155  0.48868773    -0.82500
O162        O  0.42011841  0.91778324  0.54588486    -0.76100
Al163      Al  0.44105627  0.85350836  0.52510542     1.90100
O164        O  0.38152659  0.86511860  0.49556255    -0.75100
O165        O  0.36617577  0.87604664  0.59662285    -0.75000
O166        O  0.33965840  0.81861997  0.55051929    -0.80600
O167        O  0.40460812  0.87263429  0.63356282    -0.78800
O168        O  0.41066841  0.85258637  0.56078804    -1.15000
O169        O  0.45997961  0.86476706  0.61448827    -0.74200
C170        C  0.48741809  0.87644943  0.59262987     0.96500
C171        C  0.37847970  0.83741207  0.47946892     0.92900
Al172      Al  0.37979148  0.86824986  0.54848734     1.55600
O173        O  0.43476990  0.80674961  0.53442157    -0.78800
C174        C  0.37850927  0.87840486  0.62900906     0.97100
C175        C  0.44808640  0.92719275  0.52456673     0.92000
O176        O  0.45438041  0.90309051  0.51011972    -0.84100
O177        O  0.37957998  0.51261135  0.55755597    -0.83600
C178        C  0.45041150  0.66449957  0.57049173     0.95800
O179        O  0.43617761  0.64294209  0.59853128    -0.72700
O180        O  0.36983325  0.58706886  0.58827148    -0.76300
Al181      Al  0.41453033  0.59067339  0.60326828     1.49000
C182        C  0.34788580  0.57152568  0.56143976     0.91000
O183        O  0.41069830  0.59276217  0.48558940    -0.82500
O184        O  0.48515492  0.57801620  0.54205011    -0.76100
Al185      Al  0.39838431  0.55405839  0.52359202     1.90100
O186        O  0.46857465  0.61309899  0.49056662    -0.75100
O187        O  0.49778706  0.63270693  0.59087936    -0.75000
O188        O  0.46600439  0.65729829  0.54367754    -0.80600
O189        O  0.45610125  0.59420299  0.62891756    -0.78800
O190        O  0.42883136  0.58661856  0.55735821    -1.15000
O191        O  0.39029218  0.53998590  0.61311503    -0.74200
C192        C  0.37593959  0.51125253  0.59317655     0.96500
C193        C  0.44322638  0.61545984  0.47531527     0.92900
Al194      Al  0.47546887  0.61750258  0.54320460     1.55600
O195        O  0.35675488  0.55854219  0.53417204    -0.78800
C196        C  0.48820796  0.62054223  0.62355631     0.97100
C197        C  0.46670872  0.54964098  0.52142214     0.92000
O198        O  0.43548588  0.54195190  0.50775768    -0.84100
O199        O  0.55670451  0.46223312  0.49607258    -0.83600
C200        C  0.53311841  0.33488045  0.43559493     0.95800
O201        O  0.52107065  0.34491722  0.46314859    -0.72700
O202        O  0.52336163  0.39076036  0.51517934    -0.76300
Al203      Al  0.51415659  0.38598427  0.46239786     1.49000
C204        C  0.55087232  0.39303539  0.53145931     0.91000
O205        O  0.63420967  0.44528226  0.46398666    -0.82500
O206        O  0.60376570  0.45753938  0.39021322    -0.76100
Al207      Al  0.59261018  0.44942536  0.47775615     1.90100
O208        O  0.61417182  0.40445636  0.41869913    -0.75100
O209        O  0.53475739  0.40966224  0.37657913    -0.75000
O210        O  0.54576329  0.35456631  0.40617492    -0.80600
O211        O  0.49113024  0.37160509  0.41377120    -0.78800
O212        O  0.56056208  0.41488669  0.44678244    -1.15000
O213        O  0.50618949  0.42642731  0.46326201    -0.74200
C214        C  0.52523064  0.45476617  0.48355847     0.96500
C215        C  0.63973386  0.42648649  0.43999855     0.92900
Al216      Al  0.57338259  0.40728183  0.40157016     1.55600
O217        O  0.58252938  0.41330513  0.51735986    -0.78800
C218        C  0.50186251  0.38456101  0.38121337     0.97100
C219        C  0.61580112  0.48761997  0.40748235     0.92000
O220        O  0.60828082  0.48870542  0.44191100    -0.84100
O221        O  0.11971967  0.61562038  0.56526104    -0.83600
C222        C  0.19939426  0.54493207  0.57477090     0.95800
O223        O  0.19243016  0.55870585  0.60344664    -0.72700
O224        O  0.20330122  0.62504607  0.59490941    -0.76300
Al225      Al  0.16169876  0.57987988  0.60960614     1.49000
C226        C  0.21023443  0.64664037  0.56770853     0.91000
O227        O  0.16666061  0.58411695  0.49167578    -0.82500
O228        O  0.07677278  0.51006161  0.54902560    -0.76100
Al229      Al  0.14145329  0.59660222  0.53060978     1.90100
O230        O  0.12838335  0.52605639  0.49656449    -0.75100
O231        O  0.11925398  0.49672710  0.59694739    -0.75000
O232        O  0.17578998  0.52897285  0.54864019    -0.80600
O233        O  0.12330103  0.53819067  0.63526974    -0.78800
O234        O  0.14301320  0.56593800  0.56381150    -1.15000
O235        O  0.13502633  0.60338015  0.62052587    -0.74200
C236        C  0.12121781  0.61823149  0.60093206     0.96500
C237        C  0.15487191  0.55194069  0.47963072     0.92900
Al238      Al  0.12628592  0.51945978  0.54932417     1.55600
O239        O  0.18847186  0.63747846  0.54040256    -0.78800
C240        C  0.11711530  0.50623035  0.62978920     0.97100
C241        C  0.06737349  0.52918654  0.52915667     0.92000
O242        O  0.09157049  0.56032840  0.51562061    -0.84100
O243        O  0.89432034  0.43851133  0.48525390    -0.83600
C244        C  0.78663495  0.45373755  0.41324606     0.95800
O245        O  0.81487590  0.48117489  0.42779218    -0.72700
O246        O  0.83171271  0.47429846  0.49492658    -0.76300
Al247      Al  0.85857662  0.48496934  0.45016789     1.49000
C248        C  0.82214091  0.45058036  0.52012269     0.91000
O249        O  0.79355114  0.37063242  0.46576013    -0.82500
O250        O  0.86944125  0.41381210  0.38484345    -0.76100
Al251      Al  0.84434103  0.40711047  0.47343119     1.90100
O252        O  0.79754702  0.37171808  0.40434864    -0.75100
O253        O  0.85463886  0.46607879  0.36563828    -0.75000
O254        O  0.78844626  0.42750105  0.39822624    -0.80600
O255        O  0.88857202  0.50729185  0.40669505    -0.78800
O256        O  0.84435698  0.43825255  0.43897085    -1.15000
O257        O  0.90337753  0.49399350  0.47495734    -0.74200
C258        C  0.91494724  0.47300409  0.48603720     0.96500
C259        C  0.78139587  0.35562450  0.43414163     0.92900
Al260      Al  0.82930079  0.42161282  0.39234862     1.55600
O261        O  0.82808761  0.42429495  0.51612582    -0.78800
C262        C  0.87827320  0.49855167  0.37329483     0.97100
C263        C  0.86983219  0.38824182  0.40315634     0.92000
O264        O  0.85988126  0.38258338  0.43760453    -0.84100
O265        O  0.42925204  0.21282834  0.68224326    -0.83600
C266        C  0.53224512  0.33630964  0.74892721     0.95800
O267        O  0.50940476  0.32787233  0.72225767    -0.72700
O268        O  0.46629743  0.28413264  0.66852226    -0.76300
Al269      Al  0.46115899  0.28604354  0.72155108     1.49000
C270        C  0.49402371  0.28639085  0.65249172     0.91000
O271        O  0.52355032  0.22950837  0.71306288    -0.82500
O272        O  0.47795049  0.21200505  0.78753036    -0.76100
Al273      Al  0.47782469  0.22545931  0.70039935     1.90100
O274        O  0.54328253  0.26643249  0.76162213    -0.75100
O275        O  0.45788842  0.25895887  0.80577900    -0.75000
O276        O  0.52501240  0.31543366  0.77733255    -0.80600
O277        O  0.45184560  0.29772708  0.77134509    -0.78800
O278        O  0.47921581  0.25736658  0.73429136    -1.15000
O279        O  0.41249077  0.24440017  0.71912707    -0.74200
C280        C  0.40423708  0.21787006  0.69641064     0.96500
C281        C  0.54740107  0.24646911  0.73807973     0.92900
Al282      Al  0.49913300  0.26268399  0.77937422     1.55600
O283        O  0.50498124  0.26496590  0.66332434    -0.78800
C284        C  0.44988971  0.28374031  0.80316338     0.97100
C285        C  0.46023105  0.18295120  0.76845081     0.92000
O286        O  0.45338501  0.18373491  0.73376550    -0.84100
O287        O  0.20471216  0.15873233  0.61493271    -0.83600
C288        C  0.11959412  0.00744975  0.60046078     0.95800
O289        O  0.12756626  0.02937340  0.57276324    -0.72700
O290        O  0.11911214  0.08603901  0.58259470    -0.76300
Al291      Al  0.15999590  0.08144852  0.56838479     1.49000
C292        C  0.11283611  0.10136276  0.60967444     0.91000
O293        O  0.15199242  0.07924216  0.68598555    -0.82500
O294        O  0.24209192  0.09290292  0.63180281    -0.76100
Al295      Al  0.17979663  0.11726536  0.64837334     1.90100
O296        O  0.18734631  0.05613382  0.68190932    -0.75100
O297        O  0.20029936  0.03907513  0.58148004    -0.75000
O298        O  0.14221112  0.01414408  0.62722949    -0.80600
O299        O  0.19776110  0.07710130  0.54303376    -0.78800
O300        O  0.17739135  0.08477584  0.61467593    -1.15000
O301        O  0.18856741  0.13211559  0.55900012    -0.74200
C302        C  0.20362966  0.16058335  0.57932414     0.96500
C303        C  0.16197467  0.05777425  0.69849999     0.92900
Al304      Al  0.19195849  0.05355574  0.62906346     1.55600
O305        O  0.13446186  0.11363849  0.63709539    -0.78800
C306        C  0.20319151  0.05093435  0.54869491     0.97100
C307        C  0.25169917  0.12078118  0.65301741     0.92000
O308        O  0.22792507  0.12838106  0.66569527    -0.84100
O309        O  0.78887428  0.22760897  0.68929935    -0.83600
C310        C  0.66673201  0.21821919  0.75892766     0.95800
O311        O  0.66628671  0.19041123  0.74402666    -0.72700
O312        O  0.69222610  0.19354200  0.67806145    -0.76300
Al313      Al  0.70576873  0.18384149  0.72452604     1.49000
C314        C  0.70673839  0.21741185  0.65300510     0.91000
O315        O  0.76046122  0.29875704  0.70685142    -0.82500
O316        O  0.78862119  0.25413777  0.78918037    -0.76100
Al317      Al  0.77242349  0.26071071  0.70022179     1.90100
O318        O  0.76237536  0.29822232  0.76824213    -0.75100
O319        O  0.72019903  0.20469888  0.80903542    -0.75000
O320        O  0.69543040  0.24377380  0.77431869    -0.80600
O321        O  0.70956346  0.16140296  0.76967423    -0.78800
O322        O  0.73976218  0.23055001  0.73489608    -1.15000
O323        O  0.74157640  0.17283639  0.70298486    -0.74200
C324        C  0.77444354  0.19310259  0.69105923     0.96500
C325        C  0.76319652  0.31414358  0.73821272     0.92900
Al326      Al  0.74157049  0.24824688  0.78098748     1.55600
O327        O  0.73907501  0.24417567  0.65737261    -0.78800
C328        C  0.70912410  0.17165697  0.80270050     0.97100
C329        C  0.81590307  0.27889510  0.77101635     0.92000
O330        O  0.81274564  0.28457767  0.73633209    -0.84100
O331        O  0.83444269  0.04977623  0.61453935    -0.83600
C332        C  0.98766338  0.12217654  0.60387858     0.95800
O333        O  0.96624317  0.10765856  0.57589295    -0.72700
O334        O  0.91112724  0.04066525  0.58570649    -0.76300
Al335      Al  0.91388686  0.08502427  0.57067662     1.49000
C336        C  0.89420043  0.01817216  0.61185501     0.91000
O337        O  0.91211534  0.07887260  0.68816355    -0.82500
O338        O  0.89883391  0.15411560  0.63276774    -0.76100
Al339      Al  0.87498566  0.06754432  0.64929839     1.90100
O340        O  0.93447599  0.13745047  0.68429589    -0.75100
O341        O  0.95442935  0.16795594  0.58393595    -0.75000
O342        O  0.97940601  0.13645341  0.63112713    -0.80600
O343        O  0.91684712  0.12636338  0.54540261    -0.78800
O344        O  0.90858396  0.09859147  0.61660191    -1.15000
O345        O  0.86328961  0.05994113  0.55986959    -0.74200
C346        C  0.83397855  0.04600753  0.57903726     0.96500
C347        C  0.93317718  0.11072885  0.70088401     0.92900
Al348      Al  0.93887681  0.14496559  0.63154762     1.55600
O349        O  0.87978571  0.02639359  0.63829516    -0.78800
C350        C  0.94324041  0.15833262  0.55097410     0.97100
C351        C  0.86990262  0.13505554  0.65265901     0.92000
O352        O  0.86220657  0.10375898  0.66573626    -0.84100
O353        O  0.76701777  0.56733538  0.69289647    -0.83600
C354        C  0.78299917  0.45807854  0.76011844     0.95800
O355        O  0.81031790  0.48715210  0.74656888    -0.72700
O356        O  0.80405326  0.50657637  0.68037825    -0.76300
Al357      Al  0.81374289  0.53138437  0.72625844     1.49000
C358        C  0.78023605  0.49697945  0.65525208     0.91000
O359        O  0.69953511  0.46630242  0.70843618    -0.82500
O360        O  0.74078478  0.53799790  0.79280483    -0.76100
Al361      Al  0.73584263  0.51715759  0.70290447     1.90100
O362        O  0.69904255  0.46749753  0.76973903    -0.75100
O363        O  0.79322437  0.52271933  0.81055853    -0.75000
O364        O  0.75565506  0.45836359  0.77473139    -0.80600
O365        O  0.83475855  0.55944105  0.77093696    -0.78800
O366        O  0.76657807  0.51601195  0.73708061    -1.15000
O367        O  0.82267446  0.57691791  0.70371595    -0.74200
C368        C  0.80147163  0.58836842  0.69311363     0.96500
C369        C  0.68296649  0.45350460  0.73925268     0.92900
Al370      Al  0.74904518  0.49853283  0.78295992     1.55600
O371        O  0.75363851  0.50245871  0.65956547    -0.78800
C372        C  0.82569271  0.54725020  0.80377167     0.97100
C373        C  0.71593481  0.53980229  0.77449297     0.92000
O374        O  0.71078766  0.53128688  0.73968006    -0.84100
O375        O  0.93941172  0.78890515  0.61151502    -0.83600
C376        C  0.86906554  0.87043670  0.60198221     0.95800
O377        O  0.88198919  0.86269171  0.57323400    -0.72700
O378        O  0.94914375  0.87685925  0.58337811    -0.76300
Al379      Al  0.90535487  0.83392271  0.56832349     1.49000
C380        C  0.97226093  0.88218923  0.60854290     0.91000
O381        O  0.91378106  0.84033124  0.68478065    -0.82500
O382        O  0.83650355  0.74949649  0.63218009    -0.76100
Al383      Al  0.92350996  0.81319078  0.64632971     1.90100
O384        O  0.85471073  0.80385282  0.68283301    -0.75100
O385        O  0.82255420  0.78980226  0.58264123    -0.75000
O386        O  0.85477535  0.84794542  0.62925930    -0.80600
O387        O  0.86413239  0.79401289  0.54377287    -0.78800
O388        O  0.89211144  0.81515390  0.61435083    -1.15000
O389        O  0.93140766  0.80960202  0.55742410    -0.74200
C390        C  0.94407988  0.79313895  0.57615570     0.96500
C391        C  0.88228482  0.82994934  0.69831864     0.92900
Al392      Al  0.84595529  0.79885394  0.63015751     1.55600
O393        O  0.96485444  0.85871213  0.63381730    -0.78800
C394        C  0.83191803  0.78738029  0.54970130     0.97100
C395        C  0.85586262  0.74053066  0.65210578     0.92000
O396        O  0.88727755  0.76490398  0.66454461    -0.84100
O397        O  0.50665155  0.81712787  0.82411782    -0.83600
C398        C  0.53538590  0.72545072  0.73199311     0.95800
O399        O  0.52698216  0.72113310  0.76692261    -0.72700
O400        O  0.56124496  0.77734252  0.81469027    -0.76300
Al401      Al  0.51119347  0.74575352  0.80241437     1.49000
C402        C  0.58391949  0.81133731  0.81139261     0.91000
O403        O  0.55457812  0.84472594  0.73084074    -0.82500
O404        O  0.45457461  0.76642349  0.72946056    -0.76100
Al405      Al  0.52834173  0.82427157  0.77686490     1.90100
O406        O  0.51869667  0.80154566  0.69272957    -0.75100
O407        O  0.46236738  0.70923828  0.73438200    -0.75000
O408        O  0.53311617  0.74946155  0.71259734    -0.80600
O409        O  0.46045491  0.70852500  0.79557729    -0.78800
O410        O  0.51158010  0.77657001  0.76724897    -1.15000
O411        O  0.49407982  0.76334601  0.84389467    -0.74200
C412        C  0.49309079  0.79248841  0.84852966     0.96500
C413        C  0.54290899  0.83419077  0.69816494     0.92900
Al414      Al  0.49418842  0.75871487  0.72156359     1.55600
O415        O  0.57432676  0.83272170  0.79705470    -0.78800
C416        C  0.44759016  0.69293613  0.76443634     0.97100
C417        C  0.45401706  0.79309786  0.74532144     0.92000
O418        O  0.48307511  0.82033731  0.75897559    -0.84100
O419        O  0.78719892  0.95040137  0.89321996    -0.83600
C420        C  0.86455138  0.87728516  0.90680427     0.95800
O421        O  0.85796172  0.89240726  0.93454074    -0.72700
O422        O  0.86939598  0.95903033  0.92555290    -0.76300
Al423      Al  0.82740561  0.91387420  0.93962797     1.49000
C424        C  0.87712916  0.98059464  0.89817105     0.91000
O425        O  0.83527077  0.91783954  0.82176087    -0.82500
O426        O  0.74330417  0.84512066  0.87765218    -0.76100
Al427      Al  0.80937199  0.93095967  0.85953701     1.90100
O428        O  0.79576984  0.86027734  0.82670398    -0.75100
O429        O  0.78397039  0.83049917  0.92696939    -0.75000
O430        O  0.84130936  0.86152981  0.88031954    -0.80600
O431        O  0.78864366  0.87227713  0.96513725    -0.78800
O432        O  0.80960582  0.90000998  0.89350408    -1.15000
O433        O  0.80058889  0.93751419  0.94926364    -0.74200
C434        C  0.78765254  0.95276569  0.92894199     0.96500
C435        C  0.82406520  0.88528345  0.81119841     0.92900
Al436      Al  0.79230187  0.85333101  0.87937133     1.55600
O437        O  0.85619955  0.97143168  0.87020185    -0.78800
C438        C  0.78246285  0.84029198  0.95982308     0.97100
C439        C  0.73500191  0.86449126  0.85677945     0.92000
O440        O  0.75992106  0.89529055  0.84331742    -0.84100
O441        O  0.20217432  0.43424382  0.81877578    -0.83600
C442        C  0.32597870  0.54530968  0.74763133     0.95800
O443        O  0.32484063  0.51710971  0.76205493    -0.72700
O444        O  0.29927573  0.49437563  0.82806431    -0.76300
Al445      Al  0.28416607  0.47151064  0.78137467     1.49000
C446        C  0.28636283  0.50489107  0.85365117     0.91000
O447        O  0.23361846  0.53507809  0.80255363    -0.82500
O448        O  0.20202010  0.46333514  0.71865871    -0.76100
Al449      Al  0.22030176  0.48448823  0.80815053     1.90100
O450        O  0.23210262  0.53406155  0.74117072    -0.75100
O451        O  0.26919099  0.47955277  0.69745938    -0.75000
O452        O  0.29778878  0.54378584  0.73323414    -0.80600
O453        O  0.27817426  0.44513407  0.73557329    -0.78800
O454        O  0.25169647  0.48617189  0.77243167    -1.15000
O455        O  0.24742298  0.42491632  0.80281047    -0.74200
C456        C  0.21527906  0.41323619  0.81611437     0.96500
C457        C  0.23112763  0.54846522  0.77172175     0.92900
Al458      Al  0.25030659  0.50321070  0.72685512     1.55600
O459        O  0.25466624  0.50077304  0.85006626    -0.78800
C460        C  0.27880376  0.45645481  0.70285284     0.97100
C461        C  0.17547701  0.46068259  0.73814163     0.92000
O462        O  0.17959500  0.46899824  0.77302172    -0.84100
O463        O  0.15220268  0.20618286  0.89226135    -0.83600
C464        C  0.00080385  0.12891801  0.90817387     0.95800
O465        O  0.02259673  0.13570521  0.93577022    -0.72700
O466        O  0.07721141  0.12410056  0.92407310    -0.76300
Al467      Al  0.07512473  0.16587741  0.93975033     1.49000
C468        C  0.09033932  0.11643134  0.89595963     0.91000
O469        O  0.07046877  0.16047842  0.82165689    -0.82500
O470        O  0.09060403  0.25072752  0.87997827    -0.76100
Al471      Al  0.11001279  0.18530591  0.85914560     1.90100
O472        O  0.05253860  0.19939584  0.82849503    -0.75100
O473        O  0.03535417  0.20892214  0.92962025    -0.75000
O474        O  0.00820832  0.15232571  0.88194208    -0.80600
O475        O  0.07333558  0.20438991  0.96635810    -0.78800
O476        O  0.07897893  0.18440625  0.89404222    -1.15000
O477        O  0.12600001  0.19204900  0.94860494    -0.74200
C478        C  0.15425386  0.20491158  0.92787828     0.96500
C479        C  0.04902243  0.17163739  0.81208091     0.92900
Al480      Al  0.04941352  0.20158594  0.88134740     1.55600
O481        O  0.10248361  0.13781219  0.86820922    -0.78800
C482        C  0.04750263  0.21063610  0.96203587     0.97100
C483        C  0.11862565  0.25993909  0.85880859     0.92000
O484        O  0.12474803  0.23559011  0.84461957    -0.84100
O485        O  0.22264064  0.79509691  0.82248876    -0.83600
C486        C  0.20837296  0.67099530  0.75301878     0.95800
O487        O  0.18113937  0.67199350  0.76754214    -0.72700
O488        O  0.18606964  0.69879354  0.83295582    -0.76300
Al489      Al  0.17681221  0.71273626  0.78676002     1.49000
C490        C  0.21069156  0.71191110  0.85734313     0.91000
O491        O  0.29301652  0.76532872  0.80356647    -0.82500
O492        O  0.24975126  0.79387123  0.72092942    -0.76100
Al493      Al  0.25505150  0.77757470  0.81061475     1.90100
O494        O  0.29115168  0.76519999  0.74227041    -0.75100
O495        O  0.19765328  0.72579240  0.70223799    -0.75000
O496        O  0.23487234  0.69903339  0.73753720    -0.80600
O497        O  0.15512174  0.71776752  0.74177700    -0.78800
O498        O  0.22412919  0.74540221  0.77609503    -1.15000
O499        O  0.16737151  0.74926203  0.80822142    -0.74200
C500        C  0.18817766  0.78164606  0.82059035     0.96500
C501        C  0.30795050  0.76741806  0.77203283     0.92900
Al502      Al  0.24142477  0.74597780  0.72999940     1.55600
O503        O  0.23834843  0.74370788  0.85300008    -0.78800
C504        C  0.16489298  0.71625608  0.70880218     0.97100
C505        C  0.27431983  0.82084295  0.73959621     0.92000
O506        O  0.27908460  0.81755070  0.77447520    -0.84100
O507        O  0.04291612  0.84149268  0.89343505    -0.83600
C508        C  0.11362844  0.99282067  0.90509822     0.95800
O509        O  0.09932102  0.97150815  0.93336232    -0.72700
O510        O  0.03320670  0.91468746  0.92413779    -0.76300
Al511      Al  0.07838316  0.91930589  0.93893005     1.49000
C512        C  0.01173824  0.90001715  0.89679411     0.91000
O513        O  0.07542805  0.92114633  0.82092029    -0.82500
O514        O  0.14890617  0.90599949  0.87869665    -0.76100
Al515      Al  0.06240241  0.88268810  0.85931682     1.90100
O516        O  0.13311782  0.94098770  0.82649885    -0.75100
O517        O  0.16181340  0.96166550  0.92676189    -0.75000
O518        O  0.12988460  0.98567358  0.87885862    -0.80600
O519        O  0.12005583  0.92355928  0.96488402    -0.78800
O520        O  0.09277836  0.91517075  0.89312320    -1.15000
O521        O  0.05508152  0.86878405  0.94912499    -0.74200
C522        C  0.04018425  0.84010183  0.92910825     0.96500
C523        C  0.10805690  0.94334655  0.81061252     0.92900
Al524      Al  0.13947766  0.94582722  0.87912805     1.55600
O525        O  0.02112803  0.88798069  0.86910548    -0.78800
C526        C  0.15222499  0.94962393  0.95945362     0.97100
C527        C  0.13015288  0.87720553  0.85859882     0.92000
O528        O  0.09916601  0.86976293  0.84447900    -0.84100
O529        O  0.50605080  0.38266041  0.95381732    -0.83600
C530        C  0.65751095  0.45710422  0.93821383     0.95800
O531        O  0.63567770  0.44264301  0.91047493    -0.72700
O532        O  0.58043525  0.37603913  0.92158155    -0.76300
Al533      Al  0.58328698  0.42029860  0.90658745     1.49000
C534        C  0.56656111  0.35476225  0.94928598     0.91000
O535        O  0.58757287  0.41849890  0.02477941    -0.82500
O536        O  0.56962625  0.48989317  0.96732467    -0.76100
Al537      Al  0.54821011  0.40413298  0.98712452     1.90100
O538        O  0.60638665  0.47575919  0.01857925    -0.75100
O539        O  0.62463908  0.50338095  0.91786285    -0.75000
O540        O  0.65048482  0.47283468  0.96505313    -0.80600
O541        O  0.58565024  0.46121226  0.88086216    -0.78800
O542        O  0.57966077  0.43462171  0.95256132    -1.15000
O543        O  0.53256822  0.39544727  0.89760754    -0.74200
C544        C  0.50429069  0.37919742  0.91817850     0.96500
C545        C  0.60947400  0.45124518  0.03462570     0.92900
Al546      Al  0.61000794  0.48147835  0.96585571     1.55600
O547        O  0.55487562  0.36397011  0.97739158    -0.78800
C548        C  0.61203734  0.49333727  0.88546204     0.97100
C549        C  0.54130162  0.47097671  0.98813863     0.92000
O550        O  0.53431828  0.44008393  0.00201942    -0.84100
O551        O  0.45974967  0.56283583  0.02565886    -0.83600
C552        C  0.33443627  0.54902821  0.09225534     0.95800
O553        O  0.33536633  0.52163915  0.07839274    -0.72700
O554        O  0.36194092  0.52650949  0.01276159    -0.76300
Al555      Al  0.37593680  0.51715774  0.05930904     1.49000
C556        C  0.37670719  0.55026772  0.98760367     0.91000
O557        O  0.42792416  0.63171033  0.04051681    -0.82500
O558        O  0.45694483  0.59003386  0.12489548    -0.76100
Al559      Al  0.44157918  0.59476858  0.03527525     1.90100
O560        O  0.42851093  0.63164599  0.10192473    -0.75100
O561        O  0.38891855  0.53856613  0.14366447    -0.75000
O562        O  0.36241057  0.57559261  0.10755605    -0.80600
O563        O  0.38073253  0.49563608  0.10475458    -0.78800
O564        O  0.40881475  0.56427499  0.06969822    -1.15000
O565        O  0.41262196  0.50760232  0.03803511    -0.74200
C566        C  0.44565434  0.52836201  0.02698149     0.96500
C567        C  0.42989072  0.64735077  0.07152504     0.92900
Al568      Al  0.40921516  0.58202369  0.11541322     1.55600
O569        O  0.40903730  0.57699245  0.99198551    -0.78800
C570        C  0.37941154  0.50581129  0.13763386     0.97100
C571        C  0.48402152  0.61508886  0.10675990     0.92000
O572        O  0.48108223  0.62003807  0.07184981    -0.84100
O573        O  0.60711805  0.12652428  0.94712176    -0.83600
C574        C  0.53592730  0.20567874  0.93483631     0.95800
O575        O  0.55002302  0.19878202  0.90642429    -0.72700
O576        O  0.61665003  0.21098031  0.91735379    -0.76300
Al577      Al  0.57227165  0.16904529  0.90157108     1.49000
C578        C  0.63809221  0.21735264  0.94458325     0.91000
O579        O  0.57431944  0.17377879  0.01899994    -0.82500
O580        O  0.50141978  0.08358095  0.96142478    -0.76100
Al581      Al  0.58754676  0.14838383  0.98109333     1.90100
O582        O  0.51641546  0.13532730  0.01334063    -0.75100
O583        O  0.48855844  0.12564251  0.91198706    -0.75000
O584        O  0.51927151  0.18195067  0.96068895    -0.80600
O585        O  0.53154975  0.13035013  0.87523709    -0.78800
O586        O  0.55733028  0.14993539  0.94708727    -1.15000
O587        O  0.59695981  0.14346456  0.89171582    -0.74200
C588        C  0.61097774  0.12898478  0.91152725     0.96500
C589        C  0.54169768  0.16314446  0.02918989     0.92900
Al590      Al  0.51029394  0.13280630  0.96047505     1.55600
O591        O  0.62875783  0.19511354  0.97146224    -0.78800
C592        C  0.49926031  0.12390183  0.87950108     0.97100
C593        C  0.52026757  0.07452272  0.98222891     0.92000
O594        O  0.55100465  0.09887679  0.99628705    -0.84100
O595        O  0.43115368  0.90092130  0.02404847    -0.83600
C596        C  0.45140130  0.79265581  0.08802868     0.95800
O597        O  0.47669034  0.82063920  0.07096969    -0.72700
O598        O  0.46894464  0.84231694  0.00689032    -0.76300
Al599      Al  0.47964736  0.86528869  0.05371864     1.49000
C600        C  0.44417555  0.83260288  0.98296446     0.91000
O601        O  0.36449581  0.79913344  0.04019689    -0.82500
O602        O  0.40640206  0.87052531  0.12397838    -0.76100
Al603      Al  0.40032587  0.85028618  0.03415978     1.90100
O604        O  0.36766796  0.79929203  0.10162644    -0.75100
O605        O  0.46151812  0.85958891  0.13979185    -0.75000
O606        O  0.42597155  0.79386132  0.10590028    -0.80600
O607        O  0.50348187  0.89176954  0.09843397    -0.78800
O608        O  0.43272235  0.84969782  0.06693575    -1.15000
O609        O  0.48740817  0.91124267  0.03375018    -0.74200
C610        C  0.46568508  0.92231753  0.02380529     0.96500
C611        C  0.35059022  0.78497697  0.07172597     0.92900
Al612      Al  0.41715340  0.83277495  0.11354365     1.55600
O613        O  0.41691563  0.83646670  0.98942075    -0.78800
C614        C  0.49431208  0.88213760  0.13193778     0.97100
C615        C  0.38021396  0.87069057  0.10677457     0.92000
O616        O  0.37513608  0.86295443  0.07190069    -0.84100
O617        O  0.09466102  0.53492765  0.02673353    -0.83600
C618        C  0.20519713  0.66137873  0.09538022     0.95800
O619        O  0.17645241  0.65976459  0.08197348    -0.72700
O620        O  0.15985971  0.63523453  0.01536071    -0.76300
Al621      Al  0.13287776  0.61901213  0.05995079     1.49000
C622        C  0.16749241  0.62015832  0.98945727     0.91000
O623        O  0.19644479  0.56987054  0.04095556    -0.82500
O624        O  0.12436830  0.53760452  0.12541053    -0.76100
Al625      Al  0.14532962  0.55448822  0.03598818     1.90100
O626        O  0.19568284  0.56893325  0.10255535    -0.75100
O627        O  0.13842322  0.60457903  0.14406005    -0.75000
O628        O  0.20414652  0.63347922  0.10964132    -0.80600
O629        O  0.10335996  0.61085196  0.10395569    -0.78800
O630        O  0.14699864  0.58654563  0.07057862    -1.15000
O631        O  0.08790289  0.58293851  0.03517133    -0.74200
C632        C  0.07506165  0.54967068  0.02519535     0.96500
C633        C  0.21044035  0.56859263  0.07188310     0.92900
Al634      Al  0.16377842  0.58609713  0.11648551     1.55600
O635        O  0.15949266  0.58711282  0.99269683    -0.78800
C636        C  0.11420600  0.61253657  0.13716870     0.97100
C637        C  0.12345923  0.51134239  0.10712042     0.92000
O638        O  0.13189327  0.51499929  0.07227259    -0.84100
O639        O  0.87213430  0.49166975  0.94485414    -0.83600
C640        C  0.78759783  0.33965816  0.93623281     0.95800
O641        O  0.79540342  0.36061768  0.90773168    -0.72700
O642        O  0.78608946  0.41683044  0.91690181    -0.76300
Al643      Al  0.82697995  0.41260435  0.90166332     1.49000
C644        C  0.78044937  0.43280868  0.94384699     0.91000
O645        O  0.82343502  0.41523995  0.01957830    -0.82500
O646        O  0.91104020  0.42640618  0.96297156    -0.76100
Al647      Al  0.84928481  0.45153247  0.98004589     1.90100
O648        O  0.85837297  0.39176540  0.01530116    -0.75100
O649        O  0.86748349  0.37067857  0.91495742    -0.75000
O650        O  0.81056648  0.34731840  0.96293425    -0.80600
O651        O  0.86459350  0.40818276  0.87595923    -0.78800
O652        O  0.84583118  0.41773488  0.94748161    -1.15000
O653        O  0.85439924  0.46295814  0.89017368    -0.74200
C654        C  0.86963161  0.49217868  0.90930488     0.96500
C655        C  0.83360961  0.39405279  0.03234464     0.92900
Al656      Al  0.86076899  0.38695222  0.96248545     1.55600
O657        O  0.80311482  0.44649866  0.97030480    -0.78800
C658        C  0.87016755  0.38213620  0.88197477     0.97100
C659        C  0.92168125  0.45574588  0.98217088     0.92000
O660        O  0.89849875  0.46406411  0.99511859    -0.84100
O661        O  0.86656170  0.76727884  0.15053831    -0.83600
C662        C  0.99067528  0.87795032  0.08119963     0.95800
O663        O  0.98984578  0.84929158  0.09369525    -0.72700
O664        O  0.96524742  0.83054573  0.16036905    -0.76300
Al665      Al  0.94949344  0.80498905  0.11507293     1.49000
C666        C  0.95100626  0.83970549  0.18586959     0.91000
O667        O  0.89845614  0.86796506  0.13341055    -0.82500
O668        O  0.86775698  0.79500718  0.05026548    -0.76100
Al669      Al  0.88480119  0.81731712  0.13972205     1.90100
O670        O  0.89663250  0.86548737  0.07209816    -0.75100
O671        O  0.93584387  0.81179435  0.03118356    -0.75000
O672        O  0.96261689  0.87643576  0.06653118    -0.80600
O673        O  0.94189900  0.77631705  0.07066559    -0.78800
O674        O  0.91668745  0.81887697  0.10493810    -1.15000
O675        O  0.91374248  0.75974700  0.13890176    -0.74200
C676        C  0.88094404  0.74734250  0.15040283     0.96500
C677        C  0.89531091  0.88035689  0.10216766     0.92900
Al678      Al  0.91580402  0.83536542  0.05902316     1.55600
O679        O  0.91849514  0.83350788  0.18225124    -0.78800
C680        C  0.94381895  0.78760865  0.03764974     0.97100
C681        C  0.84107523  0.79322961  0.06883777     0.92000
O682        O  0.84464081  0.80171451  0.10370588    -0.84100
O683        O  0.82441886  0.54543542  0.23130251    -0.83600
C684        C  0.67160177  0.46276163  0.24256649     0.95800
O685        O  0.69277588  0.47008246  0.27079154    -0.72700
O686        O  0.74738369  0.45854483  0.25990181    -0.76300
Al687      Al  0.74525613  0.50031790  0.27563269     1.49000
C688        C  0.76375154  0.45283370  0.23336232     0.91000
O689        O  0.74630045  0.49608357  0.15815502    -0.82500
O690        O  0.75969542  0.58451676  0.21448472    -0.76100
Al691      Al  0.78360255  0.52215187  0.19686099     1.90100
O692        O  0.72380555  0.53189828  0.16274021    -0.75100
O693        O  0.70482255  0.54239343  0.26380407    -0.75000
O694        O  0.67960339  0.48566354  0.21582541    -0.80600
O695        O  0.74305915  0.53898357  0.30137043    -0.78800
O696        O  0.75026267  0.51926573  0.22992251    -1.15000
O697        O  0.79593027  0.52626440  0.28604594    -0.74200
C698        C  0.82513627  0.54226154  0.26675803     0.96500
C699        C  0.72519075  0.50661776  0.14577921     0.92900
Al700      Al  0.71984841  0.53499332  0.21566004     1.55600
O701        O  0.77859019  0.47588373  0.20724977    -0.78800
C702        C  0.71708784  0.54494781  0.29642667     0.97100
C703        C  0.78839109  0.59464462  0.19428695     0.92000
O704        O  0.79622444  0.57123694  0.18106610    -0.84100
O705        O  0.88825033  0.12629832  0.15361398    -0.83600
C706        C  0.87013233  0.00086896  0.08467732     0.95800
O707        O  0.84414562  0.00309845  0.10044948    -0.72700
O708        O  0.84857374  0.03140486  0.16484396    -0.76300
Al709      Al  0.84078823  0.04464130  0.11747498     1.49000
C710        C  0.87358221  0.04325942  0.18880719     0.91000
O711        O  0.95689365  0.09432597  0.13498559    -0.82500
O712        O  0.91694616  0.12472309  0.05166427    -0.76100
Al713      Al  0.91985863  0.10768882  0.14165455     1.90100
O714        O  0.95518112  0.09267645  0.07371402    -0.75100
O715        O  0.86288949  0.05828342  0.03252827    -0.75000
O716        O  0.89662640  0.02796508  0.06803404    -0.80600
O717        O  0.81936592  0.04828771  0.07156929    -0.78800
O718        O  0.88857160  0.07608084  0.10687366    -1.15000
O719        O  0.83270570  0.08254397  0.13680288    -0.74200
C720        C  0.85408274  0.11424963  0.15037411     0.96500
C721        C  0.97173412  0.09525151  0.10376219     0.92900
Al722      Al  0.90593557  0.07596924  0.06086302     1.55600
O723        O  0.90257229  0.07381641  0.18372823    -0.78800
C724        C  0.82996083  0.04827458  0.03858492     0.97100
C725        C  0.94131283  0.15122601  0.07091567     0.92000
O726        O  0.94497099  0.14758823  0.10592699    -0.84100
O727        O  0.70863426  0.17626931  0.22468507    -0.83600
C728        C  0.78251963  0.32630121  0.24012384     0.95800
O729        O  0.76629254  0.30371723  0.26712211    -0.72700
O730        O  0.70071034  0.24531049  0.25796334    -0.76300
Al731      Al  0.74682051  0.25174069  0.27225423     1.49000
C732        C  0.68097014  0.23464164  0.22895303     0.91000
O733        O  0.74657068  0.25736002  0.15348920    -0.82500
O734        O  0.81750816  0.23951506  0.21146998    -0.76100
Al735      Al  0.73147773  0.21832797  0.19129757     1.90100
O736        O  0.80391260  0.27678834  0.16035990    -0.75100
O737        O  0.83086341  0.29467742  0.26070737    -0.75000
O738        O  0.79977564  0.31998044  0.21421291    -0.80600
O739        O  0.78877211  0.25734213  0.29882333    -0.78800
O740        O  0.76177529  0.24920026  0.22619270    -1.15000
O741        O  0.72523165  0.20109693  0.28140754    -0.74200
C742        C  0.70696709  0.17352999  0.26040295     0.96500
C743        C  0.77935048  0.27960510  0.14407730     0.92900
Al744      Al  0.80878412  0.27977964  0.21310902     1.55600
O745        O  0.69191340  0.22632422  0.19969859    -0.78800
C746        C  0.82097984  0.28325253  0.29344442     0.97100
C747        C  0.79831185  0.21095226  0.19115334     0.92000
O748        O  0.76722558  0.20381797  0.17753524    -0.84100
O749        O  0.45357116  0.28331487  0.23159338    -0.83600
C750        C  0.53373570  0.21102359  0.23706858     0.95800
O751        O  0.52673926  0.22399781  0.26620594    -0.72700
O752        O  0.54263486  0.29165547  0.25552116    -0.76300
Al753      Al  0.49949141  0.24874906  0.27208089     1.49000
C754        C  0.54698656  0.31539481  0.23145268     0.91000
O755        O  0.50228077  0.25697223  0.15560000    -0.82500
O756        O  0.41270873  0.18051213  0.21092500    -0.76100
Al757      Al  0.47658255  0.26714682  0.19548714     1.90100
O758        O  0.46532666  0.19806330  0.15853055    -0.75100
O759        O  0.45388302  0.16622120  0.25904447    -0.75000
O760        O  0.51096577  0.19765613  0.20998880    -0.80600
O761        O  0.45941935  0.20841552  0.29766233    -0.78800
O762        O  0.47919374  0.23563828  0.22678824    -1.15000
O763        O  0.47708126  0.27612037  0.28413064    -0.74200
C764        C  0.46004748  0.28882361  0.26657417     0.96500
C765        C  0.49089812  0.22535225  0.14205739     0.92900
Al766      Al  0.46193219  0.18944073  0.21114767     1.55600
O767        O  0.52275497  0.30842117  0.20710772    -0.78800
C768        C  0.45191498  0.17595546  0.29199915     0.97100
C769        C  0.40337920  0.19972188  0.19127401     0.92000
O770        O  0.42752644  0.23119685  0.17869297    -0.84100
O771        O  0.23034428  0.10695238  0.14871008    -0.83600
C772        C  0.11814146  0.11945350  0.08285977     0.95800
O773        O  0.14671530  0.14685974  0.09686956    -0.72700
O774        O  0.16866799  0.14260319  0.16230422    -0.76300
Al775      Al  0.19214278  0.15183284  0.11557697     1.49000
C776        C  0.16029467  0.11934080  0.18777646     0.91000
O777        O  0.12876100  0.03799701  0.13624826    -0.82500
O778        O  0.19917296  0.07779775  0.05056116    -0.76100
Al779      Al  0.17986605  0.07481960  0.14025138     1.90100
O780        O  0.12853051  0.03721107  0.07472945    -0.75100
O781        O  0.18401338  0.12916897  0.03135574    -0.75000
O782        O  0.11948568  0.09298763  0.06771264    -0.80600
O783        O  0.21864376  0.17305372  0.06968870    -0.78800
O784        O  0.17755951  0.10471038  0.10558182    -1.15000
O785        O  0.23872383  0.16199008  0.13682495    -0.74200
C786        C  0.25087610  0.14147073  0.14786684     0.96500
C787        C  0.11423368  0.02230603  0.10555512     0.92900
Al788      Al  0.15979606  0.08628173  0.06016020     1.55600
O789        O  0.16612899  0.09310189  0.18345783    -0.78800
C790        C  0.20747204  0.16211633  0.03686404     0.97100
C791        C  0.20129453  0.05339375  0.06920296     0.92000
O792        O  0.19326722  0.04891400  0.10409834    -0.84100
C793        C  0.35295402  0.20826753  0.16465627    -0.15100
C794        C  0.36411111  0.18529733  0.18157061     0.07000
C795        C  0.33754725  0.14836806  0.18821769    -0.15100
C796        C  0.30091113  0.13452032  0.17752600    -0.15100
C797        C  0.28974178  0.15729018  0.16017770     0.07000
C798        C  0.31614268  0.19445511  0.15421372    -0.15100
H799        H  0.37274751  0.23696770  0.15929983     0.11000
H800        H  0.34516412  0.12995902  0.20113977     0.11000
H801        H  0.28129705  0.10574561  0.18274728     0.11000
H802        H  0.30849215  0.21269572  0.14095916     0.11000
C803        C  0.62163286  0.22000232  0.19768995    -0.15100
C804        C  0.64351710  0.22934410  0.23029292     0.07000
C805        C  0.62807516  0.23022044  0.26515259    -0.15100
C806        C  0.59181163  0.22250411  0.26737460    -0.15100
C807        C  0.57005283  0.21376846  0.23479601     0.07000
C808        C  0.58517226  0.21226437  0.19993357    -0.15100
H809        H  0.63267621  0.21866497  0.17048668     0.11000
H810        H  0.64389402  0.23650996  0.29091068     0.11000
H811        H  0.58095341  0.22388047  0.29468794     0.11000
H812        H  0.56914444  0.20597285  0.17435482     0.11000
C813        C  0.03820899  0.12635285  0.12289171    -0.15100
C814        C  0.00903642  0.10059032  0.10053190     0.07000
C815        C  0.01657580  0.08335318  0.07076435    -0.15100
C816        C  0.05234768  0.09083680  0.06404056    -0.15100
C817        C  0.08166971  0.11634115  0.08646403     0.07000
C818        C  0.07438273  0.13449255  0.11560795    -0.15100
H819        H  0.03315839  0.14081775  0.14521820     0.11000
H820        H  0.99460452  0.06390364  0.05263792     0.11000
H821        H  0.05699527  0.07628878  0.04147552     0.11000
H822        H  0.09648961  0.15427799  0.13327934     0.11000
C823        C  0.80284676  0.12856608  0.15384837    -0.15100
C824        C  0.83924650  0.13818335  0.16226607     0.07000
C825        C  0.86179995  0.17158528  0.18129477    -0.15100
C826        C  0.84846009  0.19492726  0.19122236    -0.15100
C827        C  0.81230156  0.18565963  0.18210143     0.07000
C828        C  0.78960283  0.15203035  0.16351629    -0.15100
H829        H  0.78471169  0.10313304  0.13922568     0.11000
H830        H  0.88996166  0.17987097  0.18835429     0.11000
H831        H  0.86668346  0.22051555  0.20554835     0.11000
H832        H  0.76151984  0.14384658  0.15620772     0.11000
C833        C  0.78511982  0.41234291  0.20449691    -0.15100
C834        C  0.76741898  0.41973910  0.23408425     0.07000
C835        C  0.75585325  0.39681486  0.26592894    -0.15100
C836        C  0.76178885  0.36722304  0.26818758    -0.15100
C837        C  0.77939073  0.35968954  0.23862162     0.07000
C838        C  0.79097133  0.38255742  0.20670097    -0.15100
H839        H  0.79461772  0.42968254  0.17969404     0.11000
H840        H  0.74258081  0.40198383  0.28943080     0.11000
H841        H  0.75230873  0.35007589  0.29313937     0.11000
H842        H  0.80414318  0.37719318  0.18324853     0.11000
C843        C  0.61548951  0.41500256  0.20852004    -0.15100
C844        C  0.63819110  0.42594509  0.24048286     0.07000
C845        C  0.63088664  0.40006379  0.26908630    -0.15100
C846        C  0.60198879  0.36388873  0.26552483    -0.15100
C847        C  0.57954437  0.35277732  0.23340669     0.07000
C848        C  0.58632067  0.37878477  0.20510065    -0.15100
H849        H  0.62061333  0.43422361  0.18588859     0.11000
H850        H  0.64791464  0.40754241  0.29406396     0.11000
H851        H  0.59695837  0.34473497  0.28820062     0.11000
H852        H  0.56909027  0.37113853  0.18027205     0.11000
C853        C  0.05035314  0.92011074  0.11367053    -0.15100
C854        C  0.02374265  0.91447079  0.08646526     0.07000
C855        C  0.02611449  0.94500165  0.06807091    -0.15100
C856        C  0.05455601  0.98030326  0.07637807    -0.15100
C857        C  0.08098179  0.98597828  0.10359441     0.07000
C858        C  0.07868943  0.95576649  0.12245938    -0.15100
H859        H  0.04903023  0.89702752  0.12833607     0.11000
H860        H  0.00588445  0.94164185  0.04725048     0.11000
H861        H  0.05640152  0.00332961  0.06095859     0.11000
H862        H  0.09958588  0.95963308  0.14264826     0.11000
C863        C  0.87191051  0.92030779  0.12794029    -0.15100
C864        C  0.88851542  0.91119161  0.09886716     0.07000
C865        C  0.89583512  0.92972538  0.06411826    -0.15100
C866        C  0.88776078  0.95749030  0.05881683    -0.15100
C867        C  0.87169330  0.96704242  0.08792320     0.07000
C868        C  0.86330482  0.94795877  0.12235612    -0.15100
H869        H  0.86539859  0.90596972  0.15467400     0.11000
H870        H  0.90830815  0.92305091  0.04097849     0.11000
H871        H  0.89483312  0.97211222  0.03220130     0.11000
H872        H  0.85163772  0.95554836  0.14539480     0.11000
C873        C  0.87067779  0.68360165  0.15896843    -0.15100
C874        C  0.85834453  0.70868234  0.16350299     0.07000
C875        C  0.82330298  0.69615651  0.17959188    -0.15100
C876        C  0.80090075  0.65937054  0.19027715    -0.15100
C877        C  0.81281579  0.63408775  0.18482503     0.07000
C878        C  0.84809781  0.64668711  0.16935577    -0.15100
H879        H  0.89748335  0.69232310  0.14673004     0.11000
H880        H  0.81293738  0.71474195  0.18362179     0.11000
H881        H  0.77391985  0.65057603  0.20209768     0.11000
H882        H  0.85821393  0.62792763  0.16505852     0.11000
C883        C  0.84095149  0.36808034  0.09148803    -0.15100
C884        C  0.81707443  0.37043066  0.06588722     0.07000
C885        C  0.77922801  0.34379808  0.06754326    -0.15100
C886        C  0.76604677  0.31417805  0.09323317    -0.15100
C887        C  0.79070937  0.31074442  0.11718574     0.07000
C888        C  0.82803370  0.33888561  0.11673288    -0.15100
H889        H  0.87023946  0.38791962  0.09051707     0.11000
H890        H  0.76038483  0.34453333  0.04737216     0.11000
H891        H  0.73706845  0.29337889  0.09333668     0.11000
H892        H  0.84782641  0.33798941  0.13542037     0.11000
C893        C  0.02434939  0.49261266  0.99450144    -0.15100
C894        C  0.03633671  0.52695481  0.01183544     0.07000
C895        C  0.01061991  0.53835937  0.01745545    -0.15100
C896        C  0.97362449  0.51544045  0.00725844    -0.15100
C897        C  0.96144156  0.48065964  0.99086580     0.07000
C898        C  0.98743778  0.46985264  0.98397761    -0.15100
H899        H  0.04348048  0.48305218  0.98942642     0.11000
H900        H  0.01887399  0.56460052  0.03060631     0.11000
H901        H  0.95442510  0.52485877  0.01264413     0.11000
H902        H  0.97910882  0.44342169  0.97124997     0.11000
C903        C  0.30708319  0.72733260  0.10449314    -0.15100
C904        C  0.31357207  0.75256950  0.07556834     0.07000
C905        C  0.28370388  0.74951386  0.05517662    -0.15100
C906        C  0.24778004  0.72122402  0.06345634    -0.15100
C907        C  0.24146253  0.69524689  0.09163941     0.07000
C908        C  0.27150194  0.69880647  0.11222896    -0.15100
H909        H  0.32970925  0.72972490  0.12116696     0.11000
H910        H  0.28806546  0.76950322  0.03365701     0.11000
H911        H  0.22509443  0.71904550  0.04714958     0.11000
H912        H  0.26757098  0.67915390  0.13398752     0.11000
C913        C  0.49418625  0.17446207  0.05750855    -0.15100
C914        C  0.53128163  0.18341198  0.05644638     0.07000
C915        C  0.55664183  0.21183786  0.08007383    -0.15100
C916        C  0.54437991  0.22892553  0.10594753    -0.15100
C917        C  0.50675449  0.21799734  0.10815707     0.07000
C918        C  0.48219699  0.19142302  0.08286811    -0.15100
H919        H  0.47386249  0.15350970  0.03913581     0.11000
H920        H  0.58546686  0.21982072  0.07953693     0.11000
H921        H  0.56374586  0.24879047  0.12581923     0.11000
H922        H  0.45304266  0.18216495  0.08423976     0.11000
C923        C  0.68944168  0.26993963  0.91008598    -0.15100
C924        C  0.67577447  0.24976302  0.94356590     0.07000
C925        C  0.69974976  0.25833334  0.97439145    -0.15100
C926        C  0.73657110  0.28672072  0.97180757    -0.15100
C927        C  0.75011145  0.30695315  0.93830123     0.07000
C928        C  0.72612802  0.29807632  0.90745159    -0.15100
H929        H  0.67195554  0.26358440  0.88558250     0.11000
H930        H  0.69011857  0.24293471  0.00043950     0.11000
H931        H  0.75423769  0.29316381  0.99615772     0.11000
H932        H  0.73558217  0.31315066  0.88119396     0.11000
C933        C  0.47045148  0.00773151  0.98255480    -0.15100
C934        C  0.50652159  0.03529005  0.99148863     0.07000
C935        C  0.52954208  0.02514767  0.01013173    -0.15100
C936        C  0.51667796  0.98845869  0.01998456    -0.15100
C937        C  0.48035293  0.96103789  0.01177662     0.07000
C938        C  0.45746891  0.97110376  0.99276248    -0.15100
H939        H  0.45205175  0.01453428  0.96819273     0.11000
H940        H  0.55759823  0.04564614  0.01729915     0.11000
H941        H  0.53495376  0.98168096  0.03465451     0.11000
H942        H  0.42934569  0.95060755  0.98582456     0.11000
C943        C  0.26919261  0.58477475  0.10240427    -0.15100
C944        C  0.24340740  0.56536430  0.07400841     0.07000
C945        C  0.24647723  0.53901495  0.05273883    -0.15100
C946        C  0.27498890  0.53200017  0.06013476    -0.15100
C947        C  0.30116578  0.55189017  0.08823641     0.07000
C948        C  0.29795916  0.57838283  0.10922381    -0.15100
H949        H  0.26683054  0.60476228  0.11959281     0.11000
H950        H  0.22613994  0.52301220  0.03149798     0.11000
H951        H  0.27688779  0.51145878  0.04357291     0.11000
H952        H  0.31781026  0.59433009  0.13088376     0.11000
C953        C  0.46272868  0.74777826  0.05273883    -0.15100
C954        C  0.44943046  0.75684865  0.08502583     0.07000
C955        C  0.42939610  0.72958279  0.11199619    -0.15100
C956        C  0.42252767  0.69396389  0.10675994    -0.15100
C957        C  0.43496486  0.68450732  0.07412524     0.07000
C958        C  0.45516260  0.71168080  0.04708150    -0.15100
H959        H  0.47808023  0.76834382  0.03145650     0.11000
H960        H  0.41861235  0.73570757  0.13700681     0.11000
H961        H  0.40718041  0.67360763  0.12829276     0.11000
H962        H  0.46568189  0.70520398  0.02212408     0.11000
C963        C  0.64553838  0.43847414  0.08449892    -0.15100
C964        C  0.64059129  0.46293713  0.06174434     0.07000
C965        C  0.66737216  0.50065857  0.06346171    -0.15100
C966        C  0.69677531  0.51393397  0.08843339    -0.15100
C967        C  0.70076708  0.49012926  0.11270304     0.07000
C968        C  0.67537823  0.45204991  0.11003431    -0.15100
H969        H  0.62583060  0.40925283  0.08346811     0.11000
H970        H  0.66535336  0.52048042  0.04585411     0.11000
H971        H  0.71559259  0.54336265  0.09012305     0.11000
H972        H  0.67730443  0.43316493  0.12919222     0.11000
C973        C  0.56959239  0.30538524  0.91374444    -0.15100
C974        C  0.56089083  0.31726790  0.94714760     0.07000
C975        C  0.54253243  0.29166570  0.97625278    -0.15100
C976        C  0.53305991  0.25491751  0.97191728    -0.15100
C977        C  0.54163160  0.24310831  0.93832825     0.07000
C978        C  0.56001387  0.26879726  0.90935649    -0.15100
H979        H  0.58322679  0.32422107  0.89056553     0.11000
H980        H  0.53502880  0.29989955  0.00216710     0.11000
H981        H  0.51951608  0.23592991  0.99500010     0.11000
H982        H  0.56742696  0.26076188  0.88324945     0.11000
C983        C  0.71161636  0.46132308  0.97225143    -0.15100
C984        C  0.69046401  0.45326731  0.93935925     0.07000
C985        C  0.69858547  0.43753789  0.90846729    -0.15100
C986        C  0.72700769  0.42980791  0.91044265    -0.15100
C987        C  0.74816851  0.43778258  0.94328077     0.07000
C988        C  0.74028180  0.45373623  0.97415416    -0.15100
H989        H  0.70562862  0.47287304  0.99669657     0.11000
H990        H  0.68268438  0.43076599  0.88272941     0.11000
H991        H  0.73274134  0.41807666  0.88597854     0.11000
H992        H  0.75634891  0.46047275  0.99976322     0.11000
C993        C  0.52525523  0.52080182  0.98640375    -0.15100
C994        C  0.51627879  0.48522823  0.99733066     0.07000
C995        C  0.48318563  0.46345013  0.01738989    -0.15100
C996        C  0.45974436  0.47697382  0.02635520    -0.15100
C997        C  0.46901253  0.51272442  0.01579508     0.07000
C998        C  0.50204606  0.53441607  0.99566887    -0.15100
H999        H  0.55045655  0.53834248  0.97098206     0.11000
H1000       H  0.47537471  0.43589101  0.02625433     0.11000
H1001       H  0.43471399  0.45969763  0.04214314     0.11000
H1002       H  0.51007715  0.56210906  0.98707839     0.11000
C1003       C  0.20724810  0.00570467  0.98432508    -0.15100
C1004       C  0.17656858  0.97054539  0.99136435     0.07000
C1005       C  0.16426625  0.96082570  0.02869449    -0.15100
C1006       C  0.17816776  0.98761541  0.05704909    -0.15100
C1007       C  0.20365721  0.02452157  0.04804509     0.07000
C1008       C  0.22034378  0.03267611  0.01236414    -0.15100
H1009       H  0.21788641  0.01396177  0.95597055     0.11000
H1010       H  0.14099097  0.93389012  0.03513173     0.11000
H1011       H  0.16478615  0.98051484  0.08440434     0.11000
H1012       H  0.24015715  0.06083670  0.00478692     0.11000
C1013       C  0.02355086  0.79915450  0.98446813    -0.15100
C1014       C  0.01398980  0.80586517  0.94869029     0.07000
C1015       C  0.97654843  0.79153051  0.94048818    -0.15100
C1016       C  0.95048662  0.77842167  0.96968855    -0.15100
C1017       C  0.96151366  0.77833777  0.00701040     0.07000
C1018       C  0.99723551  0.78491046  0.01343754    -0.15100
H1019       H  0.05228278  0.81022862  0.99156120     0.11000
H1020       H  0.96846126  0.79669372  0.91327493     0.11000
H1021       H  0.92312632  0.77362804  0.96402251     0.11000
H1022       H  0.00653808  0.78531734  0.04195759     0.11000
C1023       C  0.18266571  0.64985912  0.88752827    -0.15100
C1024       C  0.20557465  0.68841112  0.89069156     0.07000
C1025       C  0.22005041  0.70336655  0.92612820    -0.15100
C1026       C  0.20937649  0.68051570  0.95802103    -0.15100
C1027       C  0.18475745  0.64225327  0.95500712     0.07000
C1028       C  0.17269146  0.62699488  0.91921834    -0.15100
H1029       H  0.17111496  0.63741771  0.86058344     0.11000
H1030       H  0.23774589  0.73279397  0.92953055     0.11000
H1031       H  0.21921016  0.69294253  0.98538573     0.11000
H1032       H  0.15351933  0.59779006  0.91605427     0.11000
C1033       C  0.19509854  0.83949187  0.84938822    -0.15100
C1034       C  0.17250062  0.80496626  0.83231750     0.07000
C1035       C  0.13551290  0.79401991  0.82513291    -0.15100
C1036       C  0.12179122  0.81732373  0.83393488    -0.15100
C1037       C  0.14459185  0.85209118  0.85043161     0.07000
C1038       C  0.18129742  0.86262864  0.85848591    -0.15100
H1039       H  0.22372279  0.84889471  0.85542447     0.11000
H1040       H  0.11732029  0.76772250  0.81200770     0.11000
H1041       H  0.09326918  0.80813814  0.82759811     0.11000
H1042       H  0.19961818  0.88910058  0.87121767     0.11000
C1043       C  0.09494715  0.03515635  0.93355984    -0.15100
C1044       C  0.10923733  0.02543799  0.90259986     0.07000
C1045       C  0.11566515  0.04487980  0.86861907    -0.15100
C1046       C  0.10825855  0.07364340  0.86586668    -0.15100
C1047       C  0.09415545  0.08341453  0.89699400     0.07000
C1048       C  0.08746605  0.06369247  0.93078255    -0.15100
H1049       H  0.08938258  0.02059529  0.96009472     0.11000
H1050       H  0.12598718  0.03759349  0.84406077     0.11000
H1051       H  0.11395803  0.08849034  0.83951004     0.11000
H1052       H  0.07711881  0.07077606  0.95547003     0.11000
C1053       C  0.19723309  0.22992548  0.98178382    -0.15100
C1054       C  0.18841713  0.21200452  0.94665399     0.07000
C1055       C  0.20038119  0.18708243  0.93887883    -0.15100
C1056       C  0.21366354  0.17468379  0.96804599    -0.15100
C1057       C  0.21605061  0.18784822  0.00503039     0.07000
C1058       C  0.21150381  0.21825361  0.01071693    -0.15100
H1059       H  0.18791680  0.24892955  0.98861350     0.11000
H1060       H  0.19344149  0.17242402  0.91226855     0.11000
H1061       H  0.21686819  0.15114049  0.96286740     0.11000
H1062       H  0.21286989  0.22879238  0.03891113     0.11000
C1063       C  0.99159828  0.20872626  0.98810863    -0.15100
C1064       C  0.02639528  0.21257723  0.99466050     0.07000
C1065       C  0.03509293  0.20738366  0.03142348    -0.15100
C1066       C  0.00771706  0.19301773  0.05932404    -0.15100
C1067       C  0.97115722  0.18274972  0.05047159     0.07000
C1068       C  0.96395351  0.19321189  0.01558294    -0.15100
H1069       H  0.98407561  0.21295348  0.96020600     0.11000
H1070       H  0.06160822  0.21023000  0.03747646     0.11000
H1071       H  0.01401215  0.18498581  0.08597621     0.11000
H1072       H  0.93604786  0.18556909  0.00807170     0.11000
C1073       C  0.34827273  0.53727852  0.88501735    -0.15100
C1074       C  0.30967927  0.52178036  0.88769903     0.07000
C1075       C  0.29425978  0.51996708  0.92329769    -0.15100
C1076       C  0.31662017  0.53108304  0.95556624    -0.15100
C1077       C  0.35495394  0.54519238  0.95289973     0.07000
C1078       C  0.37070563  0.54933528  0.91712866    -0.15100
H1079       H  0.36108130  0.53885204  0.85808697     0.11000
H1080       H  0.26477707  0.50813985  0.92643291     0.11000
H1081       H  0.30378290  0.52762477  0.98287175     0.11000
H1082       H  0.39996922  0.55965301  0.91420434     0.11000
C1083       C  0.20051333  0.34726359  0.81867516    -0.15100
C1084       C  0.19182765  0.37425273  0.82857106     0.07000
C1085       C  0.15938364  0.36341032  0.84955254    -0.15100
C1086       C  0.13602689  0.32658750  0.85991441    -0.15100
C1087       C  0.14422897  0.29942781  0.84929975     0.07000
C1088       C  0.17694643  0.31031501  0.82877374    -0.15100
H1089       H  0.22515168  0.35456697  0.80247444     0.11000
H1090       H  0.15183122  0.38343788  0.85783912     0.11000
H1091       H  0.11120565  0.31932386  0.87575809     0.11000
H1092       H  0.18427482  0.29018995  0.82022923     0.11000
C1093       C  0.23749553  0.63463834  0.73437030    -0.15100
C1094       C  0.21124789  0.63758823  0.75626235     0.07000
C1095       C  0.19194673  0.61113002  0.78443106    -0.15100
C1096       C  0.19966586  0.58296077  0.79127638    -0.15100
C1097       C  0.22622390  0.58052614  0.76947096     0.07000
C1098       C  0.24462827  0.60629990  0.74069315    -0.15100
H1099       H  0.25290453  0.65454492  0.71250470     0.11000
H1100       H  0.17149562  0.61266514  0.80159885     0.11000
H1101       H  0.18426173  0.56257888  0.81274351     0.11000
H1102       H  0.26465410  0.60444400  0.72296311     0.11000
C1103       C  0.92980868  0.03098975  0.93357199    -0.15100
C1104       C  0.90965225  0.01813047  0.90000939     0.07000
C1105       C  0.91853566  0.04267389  0.86964659    -0.15100
C1106       C  0.94720852  0.07920834  0.87268233    -0.15100
C1107       C  0.96750146  0.09193417  0.90618214     0.07000
C1108       C  0.95835043  0.06743729  0.93663180    -0.15100
H1109       H  0.92325797  0.01301379  0.95771040     0.11000
H1110       H  0.90320483  0.03369753  0.84354646     0.11000
H1111       H  0.95396965  0.09723732  0.84856011     0.11000
H1112       H  0.97356891  0.07628946  0.96281812     0.11000
C1113       C  0.92650556  0.89790751  0.93430554    -0.15100
C1114       C  0.90111656  0.88035094  0.90494024     0.07000
C1115       C  0.91250756  0.86951890  0.87254587    -0.15100
C1116       C  0.94870487  0.87660123  0.86942361    -0.15100
C1117       C  0.97422654  0.89477684  0.89856394     0.07000
C1118       C  0.96257433  0.90507476  0.93113077    -0.15100
H1119       H  0.91873125  0.90673606  0.95964851     0.11000
H1120       H  0.89370311  0.85623819  0.84931530     0.11000
H1121       H  0.95668019  0.86779363  0.84421988     0.11000
H1122       H  0.98128644  0.91852898  0.95439497     0.11000
C1123       C  0.80346938  0.01626489  0.94066355    -0.15100
C1124       C  0.77955419  0.97881054  0.94839066     0.07000
C1125       C  0.76210585  0.96891935  0.98382460    -0.15100
C1126       C  0.77376665  0.99486850  0.01302139    -0.15100
C1127       C  0.80366854  0.03060869  0.00721576     0.07000
C1128       C  0.81597190  0.04196562  0.97009104    -0.15100
H1129       H  0.81759930  0.02464121  0.91373365     0.11000
H1130       H  0.74373954  0.94018405  0.99056986     0.11000
H1131       H  0.76382912  0.98526773  0.04132874     0.11000
H1132       H  0.83904917  0.06934364  0.96481923     0.11000
C1133       C  0.78453666  0.82946956  0.02901451    -0.15100
C1134       C  0.78089725  0.81682794  0.99174026     0.07000
C1135       C  0.78632658  0.78707541  0.98427506    -0.15100
C1136       C  0.80136911  0.77486124  0.01173216    -0.15100
C1137       C  0.81006997  0.79132304  0.04746615     0.07000
C1138       C  0.79855900  0.81642011  0.05681641    -0.15100
H1139       H  0.78052846  0.85224804  0.03576049     0.11000
H1140       H  0.78350836  0.77638644  0.95592657     0.11000
H1141       H  0.80999908  0.75557259  0.00373134     0.11000
H1142       H  0.80519931  0.82987891  0.08407259     0.11000
C1143       C  0.46858390  0.77857920  0.91548318    -0.15100
C1144       C  0.47588601  0.79908365  0.88221148     0.07000
C1145       C  0.46788292  0.82780866  0.88144063    -0.15100
C1146       C  0.45436860  0.83674441  0.91341402    -0.15100
C1147       C  0.44895168  0.81750353  0.94710766     0.07000
C1148       C  0.45566621  0.78802924  0.94772494    -0.15100
H1149       H  0.47432495  0.75634956  0.91707164     0.11000
H1150       H  0.47306351  0.84421721  0.85627981     0.11000
H1151       H  0.45030205  0.86009880  0.91245663     0.11000
H1152       H  0.45200857  0.77306427  0.97362104     0.11000
C1153       C  0.36543696  0.60906153  0.72391465    -0.15100
C1154       C  0.35981765  0.58166601  0.74986645     0.07000
C1155       C  0.38334808  0.59112305  0.78112835    -0.15100
C1156       C  0.41113574  0.62772216  0.78713259    -0.15100
C1157       C  0.41619804  0.65509626  0.76141619     0.07000
C1158       C  0.39353448  0.64527141  0.72942954    -0.15100
H1159       H  0.34761165  0.60257307  0.69966315     0.11000
H1160       H  0.37937826  0.57048770  0.80155920     0.11000
H1161       H  0.42900016  0.63451567  0.81137278     0.11000
H1162       H  0.39734686  0.66580188  0.70877360     0.11000
C1163       C  0.63189747  0.80224976  0.84311220    -0.15100
C1164       C  0.62235366  0.82565334  0.82437741     0.07000
C1165       C  0.65001996  0.86218574  0.81749193    -0.15100
C1166       C  0.68643805  0.87476607  0.82839887    -0.15100
C1167       C  0.69603861  0.85118696  0.84665163     0.07000
C1168       C  0.66824954  0.81489584  0.85423036    -0.15100
H1169       H  0.61126387  0.77392483  0.84899302     0.11000
H1170       H  0.64365412  0.88091595  0.80318746     0.11000
H1171       H  0.70716135  0.90301765  0.82232472     0.11000
H1172       H  0.67468178  0.79606438  0.86820587     0.11000
C1173       C  0.41105495  0.80727125  0.78114311    -0.15100
C1174       C  0.41779151  0.79015492  0.75049298     0.07000
C1175       C  0.38802677  0.76506621  0.72834125    -0.15100
C1176       C  0.35236734  0.75686916  0.73676051    -0.15100
C1177       C  0.34535435  0.77325508  0.76773250     0.07000
C1178       C  0.37496390  0.79871750  0.78984834    -0.15100
H1179       H  0.43347228  0.82632491  0.79899771     0.11000
H1180       H  0.39222118  0.75120732  0.70475412     0.11000
H1181       H  0.33004170  0.73760009  0.71885745     0.11000
H1182       H  0.37028497  0.81247884  0.81317434     0.11000
C1183       C  0.85070771  0.82415271  0.75863800    -0.15100
C1184       C  0.87568636  0.84737291  0.73136196     0.07000
C1185       C  0.88625528  0.88490622  0.73160110    -0.15100
C1186       C  0.87056284  0.89836865  0.75791248    -0.15100
C1187       C  0.84381095  0.87424328  0.78384969     0.07000
C1188       C  0.83517419  0.83730887  0.78443026    -0.15100
H1189       H  0.84170452  0.79510526  0.75877859     0.11000
H1190       H  0.90474973  0.90317900  0.71006336     0.11000
H1191       H  0.87811177  0.92699535  0.75694309     0.11000
H1192       H  0.81545530  0.81792555  0.80448060     0.11000
C1193       C  0.85216408  0.65469712  0.69079321    -0.15100
C1194       C  0.81636888  0.62708368  0.68114042     0.07000
C1195       C  0.79375166  0.63701784  0.66138044    -0.15100
C1196       C  0.80651014  0.67367998  0.65168875    -0.15100
C1197       C  0.84211087  0.70141444  0.66181283     0.07000
C1198       C  0.86483512  0.69145168  0.68137480    -0.15100
H1199       H  0.87010479  0.64800515  0.70626245     0.11000
H1200       H  0.76597516  0.61637610  0.65346587     0.11000
H1201       H  0.78835839  0.68032185  0.63656703     0.11000
H1202       H  0.89250982  0.71211780  0.68954014     0.11000
C1203       C  0.85694390  0.54206240  0.89915937    -0.15100
C1204       C  0.87807143  0.52610869  0.88923040     0.07000
C1205       C  0.89270463  0.53166854  0.85256812    -0.15100
C1206       C  0.88098026  0.54692027  0.82477307    -0.15100
C1207       C  0.85349600  0.55539924  0.83314987     0.07000
C1208       C  0.84407398  0.55598069  0.87108283    -0.15100
H1209       H  0.84495440  0.53779421  0.92711074     0.11000
H1210       H  0.90874402  0.51930064  0.84412292     0.11000
H1211       H  0.88846840  0.54588506  0.79572003     0.11000
H1212       H  0.82274636  0.56214907  0.87822940     0.11000
C1213       C  0.62326872  0.50363807  0.81601626    -0.15100
C1214       C  0.63308471  0.51681412  0.85300480     0.07000
C1215       C  0.66854097  0.54730112  0.85946314    -0.15100
C1216       C  0.69556836  0.55944714  0.83135681    -0.15100
C1217       C  0.68714712  0.54217987  0.79604374     0.07000
C1218       C  0.65007350  0.51667596  0.78754124    -0.15100
H1219       H  0.59619024  0.48038613  0.81003727     0.11000
H1220       H  0.67692710  0.55854240  0.88755322     0.11000
H1221       H  0.72386030  0.57920319  0.83859548     0.11000
H1222       H  0.64277207  0.50275882  0.76052948     0.11000
C1223       C  0.98238579  0.10582111  0.73684892    -0.15100
C1224       C  0.95766289  0.11895794  0.73390245     0.07000
C1225       C  0.96243744  0.14747025  0.75781456    -0.15100
C1226       C  0.99193790  0.16382414  0.78269271    -0.15100
C1227       C  0.01798809  0.15233154  0.78475877     0.07000
C1228       C  0.01228974  0.12228203  0.76233191    -0.15100
H1229       H  0.97988422  0.08445988  0.71798491     0.11000
H1230       H  0.94415044  0.15844358  0.75592734     0.11000
H1231       H  0.99456499  0.18619559  0.80001623     0.11000
H1232       H  0.03142950  0.11233795  0.76365188     0.11000
C1233       C  0.89758070  0.96843389  0.57699778    -0.15100
C1234       C  0.88889490  0.98074082  0.61014180     0.07000
C1235       C  0.87181869  0.95580925  0.64005416    -0.15100
C1236       C  0.86405238  0.91948484  0.63703723    -0.15100
C1237       C  0.87301885  0.90731061  0.60396128     0.07000
C1238       C  0.88966798  0.93217275  0.57391007    -0.15100
H1239       H  0.91008817  0.98670086  0.55316608     0.11000
H1240       H  0.86437392  0.96435000  0.66580212     0.11000
H1241       H  0.85158843  0.90114047  0.66080892     0.11000
H1242       H  0.89713815  0.92380075  0.54805418     0.11000
C1243       C  0.79370158  0.38069965  0.72012808    -0.15100
C1244       C  0.76779124  0.35093320  0.74178024     0.07000
C1245       C  0.74935885  0.35723632  0.77131140    -0.15100
C1246       C  0.75569744  0.39243272  0.77838686    -0.15100
C1247       C  0.78119233  0.42234036  0.75652365     0.07000
C1248       C  0.80068925  0.41630772  0.72778684    -0.15100
H1249       H  0.80907433  0.37653831  0.69806055     0.11000
H1250       H  0.72979782  0.33470936  0.78890319     0.11000
H1251       H  0.74022639  0.39615735  0.80069445     0.11000
H1252       H  0.82059902  0.43894371  0.71067307     0.11000
C1253       C  0.81053264  0.12694861  0.67940285    -0.15100
C1254       C  0.84483587  0.14939716  0.66155017     0.07000
C1255       C  0.85487738  0.18565333  0.65239635    -0.15100
C1256       C  0.83163607  0.19931585  0.66137870    -0.15100
C1257       C  0.79749004  0.17707586  0.67955363     0.07000
C1258       C  0.78707906  0.14057120  0.68815765    -0.15100
H1259       H  0.80180095  0.09878728  0.68673867     0.11000
H1260       H  0.88097286  0.20370709  0.63865451     0.11000
H1261       H  0.84065968  0.22759524  0.65427185     0.11000
H1262       H  0.76115566  0.12276072  0.70230807     0.11000
C1263       C  0.70080991  0.15660881  0.87100678    -0.15100
C1264       C  0.68992278  0.14519047  0.83362931     0.07000
C1265       C  0.65379739  0.11633315  0.82706249    -0.15100
C1266       C  0.62736585  0.10466654  0.85591486    -0.15100
C1267       C  0.63704939  0.12104637  0.89179218     0.07000
C1268       C  0.67456003  0.14416637  0.90006232    -0.15100
H1269       H  0.72845340  0.17896771  0.87682143     0.11000
H1270       H  0.64452159  0.10723284  0.79852696     0.11000
H1271       H  0.59858054  0.08711957  0.84869305     0.11000
H1272       H  0.68275846  0.15763408  0.92727068     0.11000
C1273       C  0.87298158  0.37082040  0.81285172    -0.15100
C1274       C  0.87325245  0.36061910  0.85044198     0.07000
C1275       C  0.86671498  0.32498430  0.85777229    -0.15100
C1276       C  0.85351329  0.29835488  0.82934938    -0.15100
C1277       C  0.84731575  0.30713666  0.79304819     0.07000
C1278       C  0.86065402  0.34431830  0.78419081    -0.15100
H1279       H  0.87823492  0.39810222  0.80619569     0.11000
H1280       H  0.86713855  0.31624996  0.88635572     0.11000
H1281       H  0.84365349  0.26998992  0.83693778     0.11000
H1282       H  0.85625177  0.35198546  0.75642000     0.11000
C1283       C  0.10738522  0.00667151  0.73312837    -0.15100
C1284       C  0.14516116  0.03365525  0.73169824     0.07000
C1285       C  0.16904944  0.03155517  0.75745125    -0.15100
C1286       C  0.15627609  0.00247343  0.78276174    -0.15100
C1287       C  0.11900504  0.97417256  0.78333693     0.07000
C1288       C  0.09428919  0.97718453  0.75905862    -0.15100
H1289       H  0.08855129  0.00712593  0.71274798     0.11000
H1290       H  0.19829154  0.05159851  0.75663175     0.11000
H1291       H  0.17618323  0.00190575  0.80153969     0.11000
H1292       H  0.06537793  0.95619577  0.75912145     0.11000
C1293       C  0.05665373  0.96827310  0.57351645    -0.15100
C1294       C  0.08240346  0.97451938  0.60195366     0.07000
C1295       C  0.07120960  0.95086968  0.63317578    -0.15100
C1296       C  0.03506736  0.92145931  0.63580766    -0.15100
C1297       C  0.00936167  0.91520903  0.60735178     0.07000
C1298       C  0.02050194  0.93895864  0.57621883    -0.15100
H1299       H  0.06430395  0.98623402  0.54923429     0.11000
H1300       H  0.09025561  0.95526098  0.65575388     0.11000
H1301       H  0.02734453  0.90344359  0.66004487     0.11000
H1302       H  0.00145277  0.93459902  0.55364811     0.11000
C1303       C  0.07150453  0.12091585  0.63985722    -0.15100
C1304       C  0.08086140  0.10684345  0.60842161     0.07000
C1305       C  0.06101864  0.10055344  0.57484419    -0.15100
C1306       C  0.03188048  0.10727285  0.57300021    -0.15100
C1307       C  0.02175865  0.12029504  0.60474485     0.07000
C1308       C  0.04217303  0.12751457  0.63806351    -0.15100
H1309       H  0.08665644  0.12653276  0.66598153     0.11000
H1310       H  0.06807008  0.09054203  0.54988097     0.11000
H1311       H  0.01680939  0.10155639  0.54679546     0.11000
H1312       H  0.03486837  0.13728758  0.66302580     0.11000
C1313       C  0.58538461  0.38299932  0.71078297    -0.15100
C1314       C  0.56905133  0.36931401  0.74620808     0.07000
C1315       C  0.59023348  0.38369416  0.77886626    -0.15100
C1316       C  0.62723142  0.41070415  0.77624792    -0.15100
C1317       C  0.64403677  0.42383101  0.74086140     0.07000
C1318       C  0.62270265  0.41004214  0.70811834    -0.15100
H1319       H  0.56971500  0.37176179  0.68513202     0.11000
H1320       H  0.57837977  0.37344554  0.80648245     0.11000
H1321       H  0.64273737  0.42110213  0.80212412     0.11000
H1322       H  0.63484879  0.42000704  0.68056992     0.11000
C1323       C  0.57846551  0.21057021  0.72345721    -0.15100
C1324       C  0.57872486  0.24016850  0.74214668     0.07000
C1325       C  0.60671010  0.26060516  0.76835212    -0.15100
C1326       C  0.63424315  0.25220253  0.77509928    -0.15100
C1327       C  0.63435294  0.22297130  0.75601096     0.07000
C1328       C  0.60593383  0.20198593  0.73040956    -0.15100
H1329       H  0.55672033  0.19368222  0.70380903     0.11000
H1330       H  0.60729424  0.28307920  0.78377809     0.11000
H1331       H  0.65585356  0.26907831  0.79489578     0.11000
H1332       H  0.60542909  0.17953348  0.71504538     0.11000
C1333       C  0.35614789  0.16591857  0.65716861    -0.15100
C1334       C  0.36523263  0.19280037  0.68532877     0.07000
C1335       C  0.33665172  0.19532926  0.70283180    -0.15100
C1336       C  0.29997395  0.17175005  0.69240123    -0.15100
C1337       C  0.29082346  0.14494654  0.66419190     0.07000
C1338       C  0.31935166  0.14223573  0.64673871    -0.15100
H1339       H  0.37751458  0.16324982  0.64302571     0.11000
H1340       H  0.34259361  0.21553199  0.72469656     0.11000
H1341       H  0.27870573  0.17456170  0.70657718     0.11000
H1342       H  0.31328173  0.12205467  0.62481370     0.11000
C1343       C  0.44757900  0.33554349  0.83488690    -0.15100
C1344       C  0.44554756  0.30129035  0.83776497     0.07000
C1345       C  0.44991631  0.28974082  0.87356138    -0.15100
C1346       C  0.46207629  0.31426706  0.90409148    -0.15100
C1347       C  0.47081284  0.35085995  0.89903989     0.07000
C1348       C  0.46047510  0.36026362  0.86520081    -0.15100
H1349       H  0.44408245  0.34526554  0.80787767     0.11000
H1350       H  0.44840887  0.26350712  0.87691912     0.11000
H1351       H  0.47040999  0.30643117  0.92962227     0.11000
H1352       H  0.46736332  0.38839112  0.86038417     0.11000
C1353       C  0.44643858  0.12675402  0.85175716    -0.15100
C1354       C  0.47646911  0.12125572  0.84643026     0.07000
C1355       C  0.49006473  0.12363855  0.80963809    -0.15100
C1356       C  0.47802598  0.13705920  0.78022854    -0.15100
C1357       C  0.45295913  0.14902412  0.78747254     0.07000
C1358       C  0.43507295  0.14093504  0.82257752    -0.15100
H1359       H  0.43507155  0.12495761  0.87965141     0.11000
H1360       H  0.51304640  0.11945435  0.80449647     0.11000
H1361       H  0.49273220  0.14365541  0.75359398     0.11000
H1362       H  0.41613318  0.15046515  0.82904366     0.11000
C1363       C  0.81414812  0.44842568  0.59044834    -0.15100
C1364       C  0.80519257  0.45565481  0.55478054     0.07000
C1365       C  0.78402526  0.47294826  0.55255504    -0.15100
C1366       C  0.77359770  0.48436812  0.58521641    -0.15100
C1367       C  0.78496131  0.47956499  0.62075723     0.07000
C1368       C  0.80451817  0.46062935  0.62298166    -0.15100
H1369       H  0.83064502  0.43552349  0.59309314     0.11000
H1370       H  0.77669224  0.47886431  0.52534869     0.11000
H1371       H  0.75860615  0.49883578  0.58251751     0.11000
H1372       H  0.81356223  0.45637513  0.64997686     0.11000
C1373       C  0.88851427  0.51687550  0.30594551    -0.15100
C1374       C  0.88753129  0.52650067  0.34371985     0.07000
C1375       C  0.87955259  0.55440936  0.35136049    -0.15100
C1376       C  0.86494590  0.56627693  0.32300064    -0.15100
C1377       C  0.85935056  0.55117795  0.28659469     0.07000
C1378       C  0.87507149  0.52971874  0.27736243    -0.15100
H1379       H  0.89440004  0.49529608  0.29931547     0.11000
H1380       H  0.87828858  0.56215998  0.38023221     0.11000
H1381       H  0.85281019  0.58265664  0.33089250     0.11000
H1382       H  0.87082458  0.51741902  0.24961864     0.11000
C1383       C  0.84662948  0.32231666  0.39081895    -0.15100
C1384       C  0.87187557  0.35927763  0.38164950     0.07000
C1385       C  0.88828412  0.36735106  0.34581812    -0.15100
C1386       C  0.87537457  0.34016206  0.31798034    -0.15100
C1387       C  0.84509862  0.30479090  0.32528510     0.07000
C1388       C  0.83288562  0.29531398  0.36265665    -0.15100
H1389       H  0.83339988  0.31520159  0.41824538     0.11000
H1390       H  0.90785244  0.39551618  0.33802017     0.11000
H1391       H  0.88587814  0.34831488  0.28956650     0.11000
H1392       H  0.80986924  0.26828242  0.36929114     0.11000
C1393       C  0.00094427  0.47833100  0.52685971    -0.15100
C1394       C  0.02790611  0.51519413  0.52033322     0.07000
C1395       C  0.01698181  0.53867620  0.50422460    -0.15100
C1396       C  0.98019037  0.52544061  0.49410880    -0.15100
C1397       C  0.95344633  0.48830360  0.49955219     0.07000
C1398       C  0.96424597  0.46502623  0.51644860    -0.15100
H1399       H  0.00833705  0.45953494  0.53923733     0.11000
H1400       H  0.03700380  0.56735018  0.49906891     0.11000
H1401       H  0.97288562  0.54407968  0.48118231     0.11000
H1402       H  0.94435719  0.43624045  0.52122387     0.11000
C1403       C  0.11953384  0.45238545  0.65457275    -0.15100
C1404       C  0.11444471  0.48237063  0.66173520     0.07000
C1405       C  0.11752817  0.49489243  0.69900947    -0.15100
C1406       C  0.13146743  0.48199159  0.72701886    -0.15100
C1407       C  0.14336493  0.45720914  0.71776495     0.07000
C1408       C  0.13440515  0.44025700  0.68226263    -0.15100
H1409       H  0.11687753  0.44164417  0.62626942     0.11000
H1410       H  0.11348436  0.51768687  0.70555208     0.11000
H1411       H  0.13812257  0.49563138  0.75418287     0.11000
H1412       H  0.14316329  0.42102241  0.67444916     0.11000
C1413       C  0.09733213  0.63452223  0.65708633    -0.15100
C1414       C  0.11324012  0.64408083  0.62094108     0.07000
C1415       C  0.13583849  0.68150360  0.61212017    -0.15100
C1416       C  0.14861807  0.70788375  0.64089977    -0.15100
C1417       C  0.13782529  0.69718479  0.67846559     0.07000
C1418       C  0.10916955  0.66110875  0.68562368    -0.15100
H1419       H  0.08010220  0.60582396  0.66468482     0.11000
H1420       H  0.14883065  0.68960820  0.58462534     0.11000
H1421       H  0.17081703  0.73548852  0.63466215     0.11000
H1422       H  0.10055290  0.65202226  0.71434394     0.11000
C1423       C  0.51660240  0.36852017  0.59101507    -0.15100
C1424       C  0.54385703  0.37103722  0.56641047     0.07000
C1425       C  0.55722901  0.34673326  0.57160924    -0.15100
C1426       C  0.54189178  0.31914589  0.59980071    -0.15100
C1427       C  0.51291437  0.31552014  0.62296060     0.07000
C1428       C  0.50155114  0.34148484  0.61874115    -0.15100
H1429       H  0.50560256  0.38664472  0.58765047     0.11000
H1430       H  0.57788425  0.34769626  0.55259270     0.11000
H1431       H  0.55179057  0.30009167  0.60264896     0.11000
H1432       H  0.48008752  0.34054482  0.63646771     0.11000
C1433       C  0.68385042  0.41316724  0.40615176    -0.15100
C1434       C  0.67734601  0.43289059  0.43408787     0.07000
C1435       C  0.70765232  0.46191121  0.45265499    -0.15100
C1436       C  0.74359998  0.47048082  0.44401819    -0.15100
C1437       C  0.74994211  0.45003296  0.41685705     0.07000
C1438       C  0.71968626  0.42158361  0.39769564    -0.15100
H1439       H  0.66122214  0.39122585  0.39066700     0.11000
H1440       H  0.70363044  0.47823012  0.47365742     0.11000
H1441       H  0.76631798  0.49231160  0.45948164     0.11000
H1442       H  0.72362337  0.40516815  0.37671985     0.11000
C1443       C  0.63423820  0.52770137  0.35157868    -0.15100
C1444       C  0.64342063  0.52052243  0.38719492     0.07000
C1445       C  0.68059040  0.53285700  0.39509226    -0.15100
C1446       C  0.70687126  0.54608182  0.36602516    -0.15100
C1447       C  0.69632211  0.54784152  0.32891661     0.07000
C1448       C  0.66063951  0.54184066  0.32278025    -0.15100
H1449       H  0.60567891  0.51783512  0.34464795     0.11000
H1450       H  0.68818785  0.52689458  0.42217773     0.11000
H1451       H  0.73411871  0.55063296  0.37176322     0.11000
H1452       H  0.65158128  0.54318062  0.29460720     0.11000
C1453       C  0.44806424  0.32954585  0.35269327    -0.15100
C1454       C  0.47846270  0.36532180  0.34806501     0.07000
C1455       C  0.49193219  0.37746852  0.31140210    -0.15100
C1456       C  0.47931800  0.35259677  0.28123387    -0.15100
C1457       C  0.45379824  0.31521006  0.28755229     0.07000
C1458       C  0.43617795  0.30452093  0.32273162    -0.15100
H1459       H  0.43683905  0.31929807  0.38048458     0.11000
H1460       H  0.51522673  0.40485788  0.30680379     0.11000
H1461       H  0.49385158  0.36135864  0.25453597     0.11000
H1462       H  0.41689774  0.27574332  0.32843604     0.11000
C1463       C  0.51736955  0.53439969  0.52362247    -0.15100
C1464       C  0.48180085  0.52536119  0.51217177     0.07000
C1465       C  0.46062185  0.49274039  0.49152444    -0.15100
C1466       C  0.47467718  0.46990658  0.48234417    -0.15100
C1467       C  0.51030949  0.47901951  0.49356593     0.07000
C1468       C  0.53145596  0.51152691  0.51441415    -0.15100
H1469       H  0.53443926  0.55927421  0.53955692     0.11000
H1470       H  0.43305293  0.48476956  0.48237800     0.11000
H1471       H  0.45754753  0.44505103  0.46640244     0.11000
H1472       H  0.55901131  0.51941269  0.52352729     0.11000
C1473       C  0.29870491  0.57574592  0.59658911    -0.15100
C1474       C  0.31034918  0.56619178  0.56352281     0.07000
C1475       C  0.28471133  0.54831308  0.53439148    -0.15100
C1476       C  0.24823683  0.54029631  0.53829290    -0.15100
C1477       C  0.23667328  0.54978386  0.57150689     0.07000
C1478       C  0.26237808  0.56759177  0.60055922    -0.15100
H1479       H  0.31754465  0.58907777  0.61978956     0.11000
H1480       H  0.29275636  0.54027275  0.50870047     0.11000
H1481       H  0.22925707  0.52709433  0.51517282     0.11000
H1482       H  0.25456776  0.57562818  0.62641648     0.11000
C1483       C  0.54267135  0.67728873  0.64815789    -0.15100
C1484       C  0.51233022  0.64195262  0.65544222     0.07000
C1485       C  0.49995246  0.63256695  0.69278598    -0.15100
C1486       C  0.51340389  0.65971046  0.72081598    -0.15100
C1487       C  0.53848572  0.69664899  0.71147459     0.07000
C1488       C  0.55527134  0.70459324  0.67583603    -0.15100
H1489       H  0.55336987  0.68535602  0.61979325     0.11000
H1490       H  0.47691051  0.60554944  0.69941851     0.11000
H1491       H  0.49991929  0.65274517  0.74811901     0.11000
H1492       H  0.57474208  0.73275976  0.66794607     0.11000
C1493       C  0.35886546  0.46960396  0.64816679    -0.15100
C1494       C  0.34936024  0.47702523  0.61268851     0.07000
C1495       C  0.31194285  0.46337508  0.60487696    -0.15100
C1496       C  0.28592337  0.44984335  0.63416401    -0.15100
C1497       C  0.29686982  0.44863145  0.67126817     0.07000
C1498       C  0.33257113  0.45488811  0.67718355    -0.15100
H1499       H  0.38756950  0.48023527  0.65505118     0.11000
H1500       H  0.30389221  0.46919311  0.57797293     0.11000
H1501       H  0.25862214  0.44534909  0.62883008     0.11000
H1502       H  0.34188007  0.45447331  0.70550308     0.11000
C1503       C  0.43288711  0.70703693  0.60040254    -0.15100
C1504       C  0.44664326  0.69742939  0.56891073     0.07000
C1505       C  0.45284788  0.71712277  0.53517794    -0.15100
C1506       C  0.44509389  0.74561942  0.53294817    -0.15100
C1507       C  0.43094208  0.75489598  0.56439182     0.07000
C1508       C  0.42513420  0.73539382  0.59817157    -0.15100
H1509       H  0.42768682  0.69234605  0.62681640     0.11000
H1510       H  0.46295557  0.71003722  0.51031981     0.11000
H1511       H  0.45031403  0.76046894  0.50664905     0.11000
H1512       H  0.41488629  0.74223892  0.62310321     0.11000
C1513       C  0.27988044  0.74523675  0.54167306    -0.15100
C1514       C  0.30084024  0.75801565  0.57479953     0.07000
C1515       C  0.29246000  0.73347986  0.60504420    -0.15100
C1516       C  0.26383115  0.69700996  0.60223335    -0.15100
C1517       C  0.24287725  0.68416556  0.56910880     0.07000
C1518       C  0.25117639  0.70869712  0.53887079    -0.15100
H1519       H  0.28604983  0.76328254  0.51766511     0.11000
H1520       H  0.30822624  0.74237138  0.63089963     0.11000
H1521       H  0.25779345  0.67901765  0.62626777     0.11000
H1522       H  0.23530885  0.69973374  0.51309305     0.11000
C1523       C  0.53448526  0.85955718  0.60122135    -0.15100
C1524       C  0.52233437  0.88414116  0.61006637     0.07000
C1525       C  0.53227759  0.90229543  0.64503795    -0.15100
C1526       C  0.54757451  0.89082933  0.67309609    -0.15100
C1527       C  0.55176073  0.86029063  0.66670309     0.07000
C1528       C  0.54863379  0.84725103  0.62958707    -0.15100
H1529       H  0.52687739  0.84486978  0.57462388     0.11000
H1530       H  0.52305003  0.92121299  0.65260130     0.11000
H1531       H  0.54973050  0.90140331  0.70141252     0.11000
H1532       H  0.55168794  0.82369837  0.62386709     0.11000
C1533       C  0.36724247  0.87784460  0.69853084    -0.15100
C1534       C  0.35762440  0.88104858  0.66148744     0.07000
C1535       C  0.32236387  0.87607167  0.65497106    -0.15100
C1536       C  0.29524299  0.86120379  0.68301178    -0.15100
C1537       C  0.30336774  0.85240392  0.71835529     0.07000
C1538       C  0.34034816  0.86411187  0.72696017    -0.15100
H1539       H  0.39418012  0.88172702  0.70458583     0.11000
H1540       H  0.31412605  0.87883199  0.62686007     0.11000
H1541       H  0.26704032  0.85254790  0.67566995     0.11000
H1542       H  0.34743637  0.85753676  0.75399638     0.11000
C1543       C  0.70060388  0.21992105  0.58255631    -0.15100
C1544       C  0.68454907  0.21220543  0.61851186     0.07000
C1545       C  0.64576797  0.19451794  0.62133207    -0.15100
C1546       C  0.62347271  0.18324482  0.58903898    -0.15100
C1547       C  0.63941150  0.18856312  0.55313322     0.07000
C1548       C  0.67826170  0.20780201  0.55031563    -0.15100
H1549       H  0.73023820  0.23317713  0.57941672     0.11000
H1550       H  0.63257199  0.18824456  0.64875683     0.11000
H1551       H  0.59378315  0.16854693  0.59227150     0.11000
H1552       H  0.69144384  0.21237699  0.52308695     0.11000
C1553       C  0.69583964  0.27650831  0.39307752    -0.15100
C1554       C  0.69050792  0.24718577  0.41602123     0.07000
C1555       C  0.71552092  0.25374427  0.44527296    -0.15100
C1556       C  0.74431438  0.28949057  0.45276336    -0.15100
C1557       C  0.74898321  0.31877565  0.43022653     0.07000
C1558       C  0.72506105  0.31186447  0.39985008    -0.15100
H1559       H  0.67700488  0.27218111  0.37029040     0.11000
H1560       H  0.71209669  0.23142174  0.46299539     0.11000
H1561       H  0.76334354  0.29414674  0.47543531     0.11000
H1562       H  0.72881328  0.33403911  0.38152650     0.11000
C1563       C  0.54216582  0.25453727  0.40583082    -0.15100
C1564       C  0.55121786  0.24425116  0.44005776     0.07000
C1565       C  0.55051160  0.26170337  0.47352998    -0.15100
C1566       C  0.54217379  0.28985884  0.47247471    -0.15100
C1567       C  0.53475060  0.30101761  0.43794170     0.07000
C1568       C  0.53425234  0.28274040  0.40477387    -0.15100
H1569       H  0.54169237  0.24114573  0.37956549     0.11000
H1570       H  0.55697821  0.25405014  0.50028786     0.11000
H1571       H  0.54314913  0.30399799  0.49833177     0.11000
H1572       H  0.52860209  0.29088527  0.37783500     0.11000
C1573       C  0.50720124  0.97765887  0.49632174    -0.15100
C1574       C  0.47369861  0.96663344  0.51535969     0.07000
C1575       C  0.46491509  0.99358341  0.52492577    -0.15100
C1576       C  0.48840576  0.03036339  0.51466735    -0.15100
C1577       C  0.52151016  0.04128389  0.49488619     0.07000
C1578       C  0.53090091  0.01456303  0.48635847    -0.15100
H1579       H  0.51503448  0.95766462  0.48881200     0.11000
H1580       H  0.43952543  0.98616456  0.53972691     0.11000
H1581       H  0.48038926  0.05026998  0.52196690     0.11000
H1582       H  0.55612124  0.02200801  0.47119962     0.11000
C1583       C  0.61495012  0.11765930  0.29982247    -0.15100
C1584       C  0.62447650  0.11428753  0.33693478     0.07000
C1585       C  0.65869638  0.11704025  0.34317324    -0.15100
C1586       C  0.68551769  0.13038080  0.31459582    -0.15100
C1587       C  0.67797146  0.14004219  0.27924454     0.07000
C1588       C  0.64138630  0.12982803  0.27097098    -0.15100
H1589       H  0.58881816  0.11589260  0.29424949     0.11000
H1590       H  0.66689782  0.11489597  0.37151456     0.11000
H1591       H  0.71354983  0.13828230  0.32183354     0.11000
H1592       H  0.63482435  0.13740174  0.24418710     0.11000
C1593       C  0.46223960  0.14998547  0.39014260    -0.15100
C1594       C  0.47431171  0.12520623  0.38162835     0.07000
C1595       C  0.46671134  0.10884920  0.34579639    -0.15100
C1596       C  0.45333083  0.12170392  0.31728216    -0.15100
C1597       C  0.44809523  0.15164930  0.32401592     0.07000
C1598       C  0.44966470  0.16352937  0.36136624    -0.15100
H1599       H  0.46784247  0.16317259  0.41750981     0.11000
H1600       H  0.47564024  0.08963330  0.33848773     0.11000
H1601       H  0.45192393  0.11149232  0.28892749     0.11000
H1602       H  0.44546425  0.18628345  0.36757429     0.11000
C1603       C  0.10899253  0.14871192  0.25400040    -0.15100
C1604       C  0.12224686  0.14575076  0.28917530     0.07000
C1605       C  0.14475879  0.12989796  0.29091296    -0.15100
C1606       C  0.15520653  0.11885681  0.25817480    -0.15100
C1607       C  0.14404626  0.12420887  0.22286374     0.07000
C1608       C  0.12020059  0.13846577  0.22113342    -0.15100
H1609       H  0.09176625  0.16083980  0.25170512     0.11000
H1610       H  0.15544069  0.12722771  0.31762708     0.11000
H1611       H  0.17374851  0.10822233  0.26031424     0.11000
H1612       H  0.11111794  0.14271471  0.19415235     0.11000
C1613       C  0.98504560  0.18189330  0.45437879    -0.15100
C1614       C  0.02208751  0.20627375  0.46409546     0.07000
C1615       C  0.02990776  0.22266156  0.49985564    -0.15100
C1616       C  0.00204611  0.21097602  0.52702865    -0.15100
C1617       C  0.96617486  0.18177512  0.51925489     0.07000
C1618       C  0.95731885  0.16935216  0.48191003    -0.15100
H1619       H  0.97817455  0.16857486  0.42705052     0.11000
H1620       H  0.05815497  0.24147227  0.50808882     0.11000
H1621       H  0.00983041  0.22151380  0.55543441     0.11000
H1622       H  0.93000208  0.14702835  0.47493429     0.11000
C1623       C  0.17848322  0.22348055  0.53990178    -0.15100
C1624       C  0.18933298  0.22317272  0.50246310     0.07000
C1625       C  0.21822587  0.21637260  0.49566921    -0.15100
C1626       C  0.22984589  0.20194182  0.52442183    -0.15100
C1627       C  0.21340432  0.19533065  0.56030005     0.07000
C1628       C  0.19108404  0.21026573  0.56889350    -0.15100
H1629       H  0.15618161  0.22854339  0.54584879     0.11000
H1630       H  0.22698817  0.21576771  0.46704024     0.11000
H1631       H  0.24698249  0.19050049  0.51705129     0.11000
H1632       H  0.17781305  0.20530193  0.59624309     0.11000
C1633       C  0.16182962  0.49444090  0.40298692    -0.15100
C1634       C  0.19999963  0.51055425  0.39667800     0.07000
C1635       C  0.22385811  0.54378829  0.41546010    -0.15100
C1636       C  0.20953995  0.55945510  0.44091621    -0.15100
C1637       C  0.17121972  0.54227964  0.44747241     0.07000
C1638       C  0.14782582  0.51001570  0.42760148    -0.15100
H1639       H  0.14219666  0.46926110  0.38886335     0.11000
H1640       H  0.25332441  0.55728496  0.41086641     0.11000
H1641       H  0.22835946  0.58391390  0.45657078     0.11000
H1642       H  0.11827794  0.49586776  0.43210784     0.11000
C1643       C  0.14264449  0.33946060  0.32224595    -0.15100
C1644       C  0.17933417  0.36650653  0.32955258     0.07000
C1645       C  0.20263510  0.35588303  0.34665978    -0.15100
C1646       C  0.18943717  0.31906451  0.35638217    -0.15100
C1647       C  0.15254296  0.29212655  0.34956388     0.07000
C1648       C  0.12938073  0.30280971  0.33228257    -0.15100
H1649       H  0.12395271  0.34669799  0.30927598     0.11000
H1650       H  0.23111816  0.37606872  0.35260715     0.11000
H1651       H  0.20793022  0.31181206  0.36979637     0.11000
H1652       H  0.10077838  0.28280395  0.32661710     0.11000
C1653       C  0.32458486  0.45061726  0.16272916    -0.15100
C1654       C  0.36089446  0.47932943  0.16870933     0.07000
C1655       C  0.37250867  0.49074850  0.20593736    -0.15100
C1656       C  0.34681001  0.47840952  0.23553955    -0.15100
C1657       C  0.30913320  0.45539608  0.22797418     0.07000
C1658       C  0.29871903  0.43905691  0.19212688    -0.15100
H1659       H  0.31474015  0.44158656  0.13431958     0.11000
H1660       H  0.40029710  0.51304234  0.21128451     0.11000
H1661       H  0.35555379  0.49183320  0.26271654     0.11000
H1662       H  0.26978381  0.42161471  0.18543531     0.11000
C1663       C  0.16109431  0.45664215  0.14855472    -0.15100
C1664       C  0.14715801  0.45214871  0.18543129     0.07000
C1665       C  0.11649495  0.45643302  0.19189009    -0.15100
C1666       C  0.10448056  0.47120213  0.16395119    -0.15100
C1667       C  0.12208828  0.48075956  0.12872520     0.07000
C1668       C  0.14829761  0.47043051  0.12025570    -0.15100
H1669       H  0.18459221  0.45349447  0.14257977     0.11000
H1670       H  0.10480738  0.45291952  0.21989075     0.11000
H1671       H  0.08430027  0.47891631  0.17123715     0.11000
H1672       H  0.16262688  0.47777552  0.09340270     0.11000
C1673       C  0.97914886  0.86022089  0.28844098    -0.15100
C1674       C  0.01792772  0.87791478  0.28588650     0.07000
C1675       C  0.03436019  0.88712717  0.25013215    -0.15100
C1676       C  0.01233698  0.87630581  0.21768994    -0.15100
C1677       C  0.97346713  0.85681239  0.22024176     0.07000
C1678       C  0.95716195  0.85014469  0.25602044    -0.15100
H1679       H  0.96570597  0.85290452  0.31564202     0.11000
H1680       H  0.06402667  0.90057342  0.24719795     0.11000
H1681       H  0.02573732  0.88192587  0.19046338     0.11000
H1682       H  0.92743616  0.83509701  0.25897727     0.11000
C1683       C  0.08239657  0.02218139  0.43814705    -0.15100
C1684       C  0.09991187  0.01511536  0.40830976     0.07000
C1685       C  0.12658496  0.04454090  0.38679901    -0.15100
C1686       C  0.13518888  0.08060865  0.39493134    -0.15100
C1687       C  0.11677042  0.08743279  0.42422455     0.07000
C1688       C  0.09057233  0.05781612  0.44591326    -0.15100
H1689       H  0.06228296  0.99993095  0.45564326     0.11000
H1690       H  0.14130515  0.03973190  0.36450955     0.11000
H1691       H  0.15544437  0.10296717  0.37777837     0.11000
H1692       H  0.07580657  0.06209255  0.46857550     0.11000
C1693       C  0.19031541  0.01153555  0.45146505    -0.15100
C1694       C  0.17859766  0.97475471  0.46074705     0.07000
C1695       C  0.18657964  0.96701498  0.49669356    -0.15100
C1696       C  0.20073601  0.99431611  0.52443774    -0.15100
C1697       C  0.20598231  0.02946103  0.51696666     0.07000
C1698       C  0.20343175  0.03863582  0.47953324    -0.15100
H1699       H  0.18433455  0.01834439  0.42397836     0.11000
H1700       H  0.17787179  0.93897489  0.50458852     0.11000
H1701       H  0.20289331  0.98638157  0.55289711     0.11000
H1702       H  0.20746025  0.06544839  0.47276321     0.11000
C1703       C  0.98690782  0.78029784  0.49147846    -0.15100
C1704       C  0.02334203  0.80812715  0.49880994     0.07000
C1705       C  0.03386089  0.81860310  0.53643629    -0.15100
C1706       C  0.00715968  0.80652119  0.56501459    -0.15100
C1707       C  0.96964409  0.78479435  0.55598464     0.07000
C1708       C  0.96002929  0.76920121  0.51980079    -0.15100
H1709       H  0.97793977  0.77196616  0.46271559     0.11000
H1710       H  0.06171271  0.84021337  0.54281861     0.11000
H1711       H  0.01528842  0.81933474  0.59253168     0.11000
H1712       H  0.93126221  0.75272606  0.51203575     0.11000
C1713       C  0.31950115  0.82640565  0.45174343    -0.15100
C1714       C  0.34704190  0.81684469  0.45285960     0.07000
C1715       C  0.34267440  0.78760770  0.42989191    -0.15100
C1716       C  0.31271103  0.77029813  0.40458356    -0.15100
C1717       C  0.28658977  0.78173126  0.40235201     0.07000
C1718       C  0.28994093  0.80922644  0.42696394    -0.15100
H1719       H  0.32110754  0.84802951  0.46958756     0.11000
H1720       H  0.36298904  0.77912040  0.43049165     0.11000
H1721       H  0.31131037  0.74979627  0.38514853     0.11000
H1722       H  0.27057428  0.81892584  0.42555042     0.11000
C1723       C  0.20241245  0.61838074  0.31086646    -0.15100
C1724       C  0.21802000  0.64273221  0.28023929     0.07000
C1725       C  0.22578012  0.63010398  0.24681632    -0.15100
C1726       C  0.21874372  0.59422329  0.24415797    -0.15100
C1727       C  0.20407293  0.57004772  0.27497966     0.07000
C1728       C  0.19566011  0.58233906  0.30833058    -0.15100
H1729       H  0.19567017  0.62726179  0.33682450     0.11000
H1730       H  0.23700573  0.64786488  0.22242814     0.11000
H1731       H  0.22554487  0.58568603  0.21799793     0.11000
H1732       H  0.18473213  0.56445940  0.33266598     0.11000
C1733       C  0.18775657  0.85025512  0.31944569    -0.15100
C1734       C  0.17647439  0.81350373  0.32767668     0.07000
C1735       C  0.14174662  0.79125058  0.34467638    -0.15100
C1736       C  0.11903342  0.80555382  0.35361439    -0.15100
C1737       C  0.13067539  0.84252998  0.34607237     0.07000
C1738       C  0.16522360  0.86463161  0.32869081    -0.15100
H1739       H  0.21427813  0.86811357  0.30637886     0.11000
H1740       H  0.13212648  0.76273006  0.35124467     0.11000
H1741       H  0.09270357  0.78786848  0.36712018     0.11000
H1742       H  0.17504588  0.89325289  0.32243166     0.11000
C1743       C  0.11590081  0.64462881  0.23439795    -0.15100
C1744       C  0.13009466  0.68202634  0.22638346     0.07000
C1745       C  0.12435715  0.69177410  0.19025951    -0.15100
C1746       C  0.11106091  0.66575802  0.16108480    -0.15100
C1747       C  0.10447261  0.63009644  0.16760511     0.07000
C1748       C  0.10380516  0.61888587  0.20502034    -0.15100
H1749       H  0.12043166  0.63640704  0.26183383     0.11000
H1750       H  0.13546474  0.72047854  0.18323296     0.11000
H1751       H  0.11213858  0.67526190  0.13250585     0.11000
H1752       H  0.09907384  0.59162001  0.21079267     0.11000
C1753       C  0.33075592  0.87373662  0.19293131    -0.15100
C1754       C  0.29558121  0.84302671  0.18593673     0.07000
C1755       C  0.28656862  0.82994659  0.14879812    -0.15100
C1756       C  0.31369525  0.84383998  0.12060031    -0.15100
C1757       C  0.35041573  0.87033849  0.12935177     0.07000
C1758       C  0.35810783  0.88687293  0.16503856    -0.15100
H1759       H  0.33859809  0.88476453  0.22116184     0.11000
H1760       H  0.25979584  0.80641236  0.14240053     0.11000
H1761       H  0.30695656  0.83028926  0.09338973     0.11000
H1762       H  0.38611688  0.90724329  0.17254555     0.11000
C1763       C  0.83174994  0.95938064  0.25251511    -0.15100
C1764       C  0.84931132  0.97410688  0.28681829     0.07000
C1765       C  0.87756103  0.01133977  0.28820170    -0.15100
C1766       C  0.88712241  0.03382101  0.25606163    -0.15100
C1767       C  0.86769444  0.01966561  0.22230984     0.07000
C1768       C  0.84044705  0.98198695  0.22082711    -0.15100
H1769       H  0.80942956  0.93107687  0.25090288     0.11000
H1770       H  0.89129451  0.02332817  0.31457285     0.11000
H1771       H  0.90825728  0.06255892  0.25814189     0.11000
H1772       H  0.82473074  0.97010667  0.19537996     0.11000
C1773       C  0.91718179  0.05391853  0.39530119    -0.15100
C1774       C  0.90896145  0.02893188  0.42509454     0.07000
C1775       C  0.93755981  0.03298300  0.44849699    -0.15100
C1776       C  0.97364170  0.06109134  0.44205697    -0.15100
C1777       C  0.98210093  0.08540818  0.41169230     0.07000
C1778       C  0.95363456  0.08180289  0.38839892    -0.15100
H1779       H  0.89562260  0.05120227  0.37670700     0.11000
H1780       H  0.93210417  0.01404888  0.47152735     0.11000
H1781       H  0.99512028  0.06382876  0.46084849     0.11000
H1782       H  0.95946892  0.10099633  0.36555067     0.11000
C1783       C  0.93850447  0.86293789  0.39422872    -0.15100
C1784       C  0.96408483  0.88136419  0.42324647     0.07000
C1785       C  0.96011468  0.90631765  0.44610120    -0.15100
C1786       C  0.93154752  0.91314770  0.43975716    -0.15100
C1787       C  0.90678267  0.89578722  0.40995593     0.07000
C1788       C  0.91027500  0.87048105  0.38728027    -0.15100
H1789       H  0.94089696  0.84344179  0.37639074     0.11000
H1790       H  0.97941871  0.92095733  0.46862724     0.11000
H1791       H  0.92884014  0.93222225  0.45811054     0.11000
H1792       H  0.89068228  0.85592447  0.36496371     0.11000
C1793       C  0.77952113  0.00311583  0.49416576    -0.15100
C1794       C  0.77246925  0.96732073  0.50087508     0.07000
C1795       C  0.77222364  0.95638471  0.53833230    -0.15100
C1796       C  0.78540559  0.98247758  0.56738785    -0.15100
C1797       C  0.80003218  0.01986462  0.55899485     0.07000
C1798       C  0.79384065  0.02944932  0.52299986    -0.15100
H1799       H  0.78019123  0.01238599  0.46556517     0.11000
H1800       H  0.76705762  0.92898781  0.54426306     0.11000
H1801       H  0.79024241  0.97437901  0.59475157     0.11000
H1802       H  0.80521015  0.05813737  0.51573123     0.11000
C1803       C  0.76667997  0.80603127  0.49781392    -0.15100
C1804       C  0.78302840  0.81384312  0.46197524     0.07000
C1805       C  0.80683142  0.80070934  0.45256860    -0.15100
C1806       C  0.81954870  0.78663622  0.48061288    -0.15100
C1807       C  0.80772294  0.78457740  0.51806434     0.07000
C1808       C  0.77851642  0.79093646  0.52552353    -0.15100
H1809       H  0.74816540  0.81569835  0.50573453     0.11000
H1810       H  0.81993127  0.80637934  0.42509057     0.11000
H1811       H  0.84174150  0.78163815  0.47386053     0.11000
H1812       H  0.76832958  0.78914676  0.55399059     0.11000
C1813       C  0.44295508  0.67881808  0.39760962    -0.15100
C1814       C  0.48017486  0.70739644  0.39856110     0.07000
C1815       C  0.50316464  0.70643937  0.42623472    -0.15100
C1816       C  0.49027198  0.67690856  0.45101376    -0.15100
C1817       C  0.45379836  0.64702227  0.44911365     0.07000
C1818       C  0.42970550  0.64889026  0.42301211    -0.15100
H1819       H  0.42492411  0.67836528  0.37567160     0.11000
H1820       H  0.53201417  0.72765823  0.42720233     0.11000
H1821       H  0.50958031  0.67718073  0.47125078     0.11000
H1822       H  0.40140428  0.62660684  0.42104998     0.11000
C1823       C  0.67709675  0.87513756  0.35108111    -0.15100
C1824       C  0.70195283  0.86242393  0.34706907     0.07000
C1825       C  0.68891748  0.82693439  0.33220723    -0.15100
C1826       C  0.65195537  0.80461317  0.32194653    -0.15100
C1827       C  0.62696043  0.81704060  0.32660095     0.07000
C1828       C  0.63999221  0.85263948  0.34111694    -0.15100
H1829       H  0.68617123  0.90223759  0.36247516     0.11000
H1830       H  0.70727360  0.81620081  0.32869297     0.11000
H1831       H  0.64282880  0.77735910  0.31095167     0.11000
H1832       H  0.62145197  0.86312410  0.34488108     0.11000
C1833       C  0.40296840  0.78523211  0.30778085    -0.15100
C1834       C  0.41260295  0.77154997  0.27625283     0.07000
C1835       C  0.39157340  0.76322160  0.24329660    -0.15100
C1836       C  0.36140996  0.76827508  0.24187746    -0.15100
C1837       C  0.35141256  0.78154811  0.27347487     0.07000
C1838       C  0.37252782  0.79008812  0.30644767    -0.15100
H1839       H  0.41888856  0.79206254  0.33350210     0.11000
H1840       H  0.39870602  0.75323935  0.21836481     0.11000
H1841       H  0.34570027  0.76141925  0.21600345     0.11000
H1842       H  0.36520533  0.79994246  0.33133561     0.11000
C1843       C  0.35402787  0.60873805  0.25098649    -0.15100
C1844       C  0.34404866  0.58432052  0.28146985     0.07000
C1845       C  0.37090548  0.59008020  0.30841552    -0.15100
C1846       C  0.40705725  0.61948635  0.30473812    -0.15100
C1847       C  0.41708145  0.64353891  0.27391925     0.07000
C1848       C  0.39010753  0.63793101  0.24721193    -0.15100
H1849       H  0.33412138  0.60491045  0.22957296     0.11000
H1850       H  0.36415900  0.57149801  0.33203075     0.11000
H1851       H  0.42710977  0.62338539  0.32600159     0.11000
H1852       H  0.39675259  0.65630234  0.22340986     0.11000
C1853       C  0.55970416  0.86612941  0.18363639    -0.15100
C1854       C  0.54498542  0.86218203  0.22012040     0.07000
C1855       C  0.52471259  0.87940219  0.22850522    -0.15100
C1856       C  0.51276299  0.89312199  0.19930021    -0.15100
C1857       C  0.52202991  0.89081668  0.16166903     0.07000
C1858       C  0.54877296  0.88098751  0.15465211    -0.15100
H1859       H  0.57508829  0.85275981  0.17634508     0.11000
H1860       H  0.51266426  0.87640300  0.25626765     0.11000
H1861       H  0.49204944  0.90040696  0.20547227     0.11000
H1862       H  0.55617658  0.87860461  0.12592287     0.11000
C1863       C  0.53909482  0.70791664  0.14778106    -0.15100
C1864       C  0.54071302  0.69842181  0.18533964     0.07000
C1865       C  0.53534480  0.66326743  0.19289449    -0.15100
C1866       C  0.52200389  0.63624720  0.16487040    -0.15100
C1867       C  0.51475474  0.64424924  0.12868228     0.07000
C1868       C  0.52667082  0.68107282  0.11950135    -0.15100
H1869       H  0.54330217  0.73478937  0.14096840     0.11000
H1870       H  0.53677634  0.65510890  0.22146854     0.11000
H1871       H  0.51312224  0.60814738  0.17268816     0.11000
H1872       H  0.52125234  0.68807691  0.09184494     0.11000
loop_ 
_geom_bond_atom_site_label_1 
_geom_bond_atom_site_label_2 
_geom_bond_distance 
_geom_bond_site_symmetry_2 
_ccdc_geom_bond_type 
O1           C16   1.268       .  A
O1           Al9   1.931       .  S
C2           O12   1.272       .  A
C2            O3   1.272       .  A
C2         C1847   1.477       .  S
O3           Al5   1.917       .  S
O4            C6   1.257       .  A
O4           Al5   1.889       .  S
Al5          O13   1.909       .  S
Al5          O15   1.877       .  S
Al5          O14   1.775       .  S
C6           O19   1.254       .  A
C6         C1834   1.473       .  S
O7           C17   1.259       .  A
O7           Al9   1.953       .  S
O8           C21   1.275       .  A
O8          Al18   1.905       .  S
Al9          O22   1.941       .  S
Al9          O19   1.881       .  S
Al9          O14   1.781       .  S
O10          C17   1.250       .  A
O10         Al18   1.893       .  S
O11          C20   1.252       .  A
O11         Al18   1.895       .  S
O12         Al18   1.905       .  S
O13          C20   1.254       .  A
O14         Al18   1.791       .  S
O15          C16   1.260       .  A
C16        C1854   1.475       .  S
C17        C1814   1.481       .  S
C20        C1864   1.483       .  S
C21          O22   1.277       .  A
C21        C1827   1.485       .  S
O23          C38   1.262       .  A
O23         Al31   1.883       .  S
C24          O34   1.265       .  A
C24          O25   1.272       .  A
C24        C1774   1.474   1_565  S
O25         Al27   1.929       .  S
O26          C28   1.246       .  A
O26         Al27   1.862       .  S
Al27         O35   1.910       .  S
Al27         O37   1.932       .  S
Al27         O36   1.793       .  S
C28          O41   1.260       .  A
C28        C1764   1.478       .  S
O29          C39   1.263       .  A
O29         Al31   1.919       .  S
O30          C43   1.267       .  A
O30         Al40   1.897       .  S
Al31         O44   1.939       .  S
Al31         O41   1.934       .  S
Al31         O36   1.801       .  S
O32          C39   1.253       .  A
O32         Al40   1.882       .  S
O33          C42   1.248       .  A
O33         Al40   1.874       .  S
O34         Al40   1.874       .  S
O35          C42   1.253       .  A
O36         Al40   1.783       .  S
O37          C38   1.271       .  A
C38        C1824   1.487       .  S
C39        C1787   1.467       .  S
C42        C1794   1.478       .  S
C43          O44   1.271       .  A
C43        C1804   1.476       .  S
O45          C60   1.268       .  A
O45         Al53   1.931       .  S
C46          O56   1.273       .  A
C46          O47   1.272       .  A
C46        C1837   1.475       .  S
O47         Al49   1.913       .  S
O48          C50   1.257       .  A
O48         Al49   1.888       .  S
Al49         O57   1.909       .  S
Al49         O59   1.873       .  S
Al49         O58   1.773       .  S
C50          O63   1.254       .  A
C50        C1724   1.476       .  S
O51          C61   1.260       .  A
O51         Al53   1.956       .  S
O52          C65   1.275       .  A
O52         Al62   1.905       .  S
Al53         O66   1.940       .  S
Al53         O63   1.886       .  S
Al53         O58   1.783       .  S
O54          C61   1.250       .  A
O54         Al62   1.892       .  S
O55          C64   1.251       .  A
O55         Al62   1.897       .  S
O56         Al62   1.909       .  S
O57          C64   1.254       .  A
O58         Al62   1.791       .  S
O59          C60   1.259       .  A
C60        C1744   1.473       .  S
C61        C1717   1.483       .  S
C64        C1754   1.485       .  S
C65          O66   1.277       .  A
C65        C1734   1.485       .  S
O67          C82   1.262       .  A
O67         Al75   1.884       .  S
C68          O78   1.265   1_655  A
C68          O69   1.272       .  A
C68        C1784   1.473       .  S
O69         Al71   1.928   1_655  S
O70          C72   1.247       .  A
O70         Al71   1.861       .  S
Al71         O79   1.910       .  S
Al71         O81   1.927       .  S
Al71         O80   1.793       .  S
C72          O85   1.262       .  A
C72        C1674   1.488       .  S
O73          C83   1.262       .  A
O73         Al75   1.921       .  S
O74          C87   1.267       .  A
O74         Al84   1.897       .  S
Al75         O88   1.944       .  S
Al75         O85   1.942       .  S
Al75         O80   1.802       .  S
O76          C83   1.252       .  A
O76         Al84   1.879       .  S
O77          C86   1.248       .  A
O77         Al84   1.875       .  S
O78         Al84   1.875       .  S
O79          C86   1.253       .  A
O80         Al84   1.782       .  S
O81          C82   1.269       .  A
C82        C1737   1.485       .  S
C83        C1684   1.467   1_565  S
C86        C1704   1.477       .  S
C87          O88   1.272       .  A
C87        C1694   1.478       .  S
O89         C104   1.270       .  A
O89         Al97   1.937       .  S
C90         O100   1.274       .  A
C90          O91   1.272       .  A
C90        C1727   1.477       .  S
O91         Al93   1.913       .  S
O92          C94   1.257       .  A
O92         Al93   1.890       .  S
Al93        O101   1.909       .  S
Al93        O103   1.873       .  S
Al93        O102   1.770       .  S
C94         O107   1.255       .  A
C94        C1844   1.478       .  S
O95         C105   1.264       .  A
O95         Al97   1.978       .  S
O96         C109   1.277       .  A
O96        Al106   1.906       .  S
Al97        O110   1.947       .  S
Al97        O107   1.886       .  S
Al97        O102   1.783       .  S
O98         C105   1.249       .  A
O98        Al106   1.886       .  S
O99         C108   1.251       .  A
O99        Al106   1.898       .  S
O100       Al106   1.914       .  S
O101        C108   1.254       .  A
O102       Al106   1.789       .  S
O103        C104   1.260       .  A
C104       C1657   1.475       .  S
C105       C1634   1.498       .  S
C108       C1664   1.485       .  S
C109        O110   1.279       .  A
C109       C1644   1.485       .  S
O111        C126   1.246       .  A
O111       Al119   1.852       .  S
C112        O122   1.268       .  A
C112        O113   1.273       .  A
C112       C1614   1.478       .  S
O113       Al115   1.944       .  S
O114        C116   1.262       .  A
O114       Al115   1.884       .  S
Al115       O123   1.919       .  S
Al115       O125   1.941       .  S
Al115       O124   1.800       .  S
C116        O129   1.269       .  A
C116       C1647   1.486       .  S
O117        C127   1.250       .  A
O117       Al119   1.904       .  S
O118        C131   1.265       .  A
O118       Al128   1.868       .  S
Al119       O132   1.936       .  S
Al119       O129   1.927       .  S
Al119       O124   1.795       .  S
O120        C127   1.248       .  A
O120       Al128   1.876       .  S
O121        C130   1.252       .  A
O121       Al128   1.882       .  S
O122       Al128   1.896       .  S
O123        C130   1.261       .  A
O124       Al128   1.783       .  S
O125        C126   1.262       .  A
C126       C1604   1.486       .  S
C127       C1624   1.474       .  S
C130       C1777   1.469   1_455  S
C131        O132   1.273       .  A
C131       C1687   1.475       .  S
O133        C148   1.260       .  A
O133       Al141   1.878       .  S
C134        O144   1.266       .  A
C134        O135   1.274       .  A
C134       C1554   1.470       .  S
O135       Al137   1.937       .  S
O136        C138   1.250       .  A
O136       Al137   1.871       .  S
Al137       O145   1.917       .  S
Al137       O147   1.938       .  S
Al137       O146   1.788       .  S
C138        O151   1.264       .  A
C138       C1547   1.493       .  S
O139        C149   1.259       .  A
O139       Al141   1.913       .  S
O140        C153   1.267       .  A
O140       Al150   1.888       .  S
Al141       O154   1.964       .  S
Al141       O151   1.946       .  S
Al141       O146   1.795       .  S
O142        C149   1.255       .  A
O142       Al150   1.894       .  S
O143        C152   1.249       .  A
O143       Al150   1.880       .  S
O144       Al150   1.869       .  S
O145        C152   1.255       .  A
O146       Al150   1.781       .  S
O147        C148   1.271       .  A
C148       C1577   1.489       .  S
C149       C1564   1.476       .  S
C152       C1584   1.479       .  S
C153        O154   1.277       .  A
C153       C1594   1.478       .  S
O155        C170   1.270       .  A
O155       Al163   1.928       .  S
C156        O166   1.277       .  A
C156        O157   1.276       .  A
C156       C1514   1.479       .  S
O157       Al159   1.924       .  S
O158        C160   1.256       .  A
O158       Al159   1.890       .  S
Al159       O167   1.913       .  S
Al159       O169   1.881       .  S
Al159       O168   1.773       .  S
C160        O173   1.254       .  A
C160       C1507   1.479       .  S
O161        C171   1.259       .  A
O161       Al163   1.966       .  S
O162        C175   1.279       .  A
O162       Al172   1.913       .  S
Al163       O176   1.946       .  S
Al163       O173   1.883       .  S
Al163       O168   1.782       .  S
O164        C171   1.247       .  A
O164       Al172   1.885       .  S
O165        C174   1.246       .  A
O165       Al172   1.879       .  S
O166       Al172   1.912       .  S
O167        C174   1.252       .  A
O168       Al172   1.788       .  S
O169        C170   1.263       .  A
C170       C1524   1.474       .  S
C171       C1714   1.496       .  S
C174       C1534   1.484       .  S
C175        O176   1.280       .  A
C175       C1574   1.489       .  S
O177        C192   1.270       .  A
O177       Al185   1.933       .  S
C178        O188   1.274       .  A
C178        O179   1.274       .  A
C178       C1504   1.478       .  S
O179       Al181   1.919       .  S
O180        C182   1.257       .  A
O180       Al181   1.889       .  S
Al181       O189   1.914       .  S
Al181       O191   1.877       .  S
Al181       O190   1.772       .  S
C182        O195   1.256       .  A
C182       C1474   1.481       .  S
O183        C193   1.262       .  A
O183       Al185   1.975       .  S
O184        C197   1.276       .  A
O184       Al194   1.907       .  S
Al185       O198   1.954       .  S
Al185       O195   1.892       .  S
Al185       O190   1.784       .  S
O186        C193   1.247       .  A
O186       Al194   1.885       .  S
O187        C196   1.248       .  A
O187       Al194   1.885       .  S
O188       Al194   1.913       .  S
O189        C196   1.254       .  A
O190       Al194   1.790       .  S
O191        C192   1.261       .  A
C192       C1494   1.475       .  S
C193       C1817   1.496       .  S
C196       C1484   1.483       .  S
C197        O198   1.281       .  A
C197       C1464   1.490       .  S
O199        C214   1.278       .  A
O199       Al207   1.954       .  S
C200        O210   1.270       .  A
C200        O201   1.266       .  A
C200       C1567   1.468       .  S
O201       Al203   1.898       .  S
O202        C204   1.256       .  A
O202       Al203   1.903       .  S
Al203       O211   1.923       .  S
Al203       O213   1.900       .  S
Al203       O212   1.785       .  S
C204        O217   1.264       .  A
C204       C1424   1.487       .  S
O205        C215   1.261       .  A
O205       Al207   1.908       .  S
O206        C219   1.261       .  A
O206       Al216   1.882       .  S
Al207       O220   1.922       .  S
Al207       O217   1.956       .  S
Al207       O212   1.778       .  S
O208        C215   1.258       .  A
O208       Al216   1.885       .  S
O209        C218   1.256       .  A
O209       Al216   1.903       .  S
O210       Al216   1.924       .  S
O211        C218   1.259       .  A
O212       Al216   1.770       .  S
O213        C214   1.272       .  A
C214       C1467   1.489       .  S
C215       C1434   1.479       .  S
C218       C1454   1.485       .  S
C219        O220   1.267       .  A
C219       C1444   1.469       .  S
O221        C236   1.269       .  A
O221       Al229   1.930       .  S
C222        O232   1.275       .  A
C222        O223   1.275       .  A
C222       C1477   1.481       .  S
O223       Al225   1.921       .  S
O224        C226   1.257       .  A
O224       Al225   1.892       .  S
Al225       O233   1.909       .  S
Al225       O235   1.876       .  S
Al225       O234   1.772       .  S
C226        O239   1.255       .  A
C226       C1517   1.480       .  S
O227        C237   1.260       .  A
O227       Al229   1.965       .  S
O228        C241   1.279       .  A
O228       Al238   1.915       .  S
Al229       O242   1.944       .  S
Al229       O239   1.885       .  S
Al229       O234   1.778       .  S
O230        C237   1.248       .  A
O230       Al238   1.888       .  S
O231        C240   1.249       .  A
O231       Al238   1.891       .  S
O232       Al238   1.913       .  S
O233        C240   1.252       .  A
O234       Al238   1.790       .  S
O235        C236   1.261       .  A
C236       C1414   1.474       .  S
C237       C1637   1.489       .  S
C240       C1404   1.484       .  S
C241        O242   1.279       .  A
C241       C1394   1.489       .  S
O243        C258   1.261       .  A
O243       Al251   1.880       .  S
C244        O254   1.264       .  A
C244        O245   1.275       .  A
C244       C1437   1.477       .  S
O245       Al247   1.938       .  S
O246        C248   1.247       .  A
O246       Al247   1.864       .  S
Al247       O255   1.909       .  S
Al247       O257   1.939       .  S
Al247       O256   1.790       .  S
C248        O261   1.263       .  A
C248       C1364   1.487       .  S
O249        C259   1.262       .  A
O249       Al251   1.918       .  S
O250        C263   1.268       .  A
O250       Al260   1.897       .  S
Al251       O264   1.946       .  S
Al251       O261   1.943       .  S
Al251       O256   1.797       .  S
O252        C259   1.253       .  A
O252       Al260   1.883       .  S
O253        C262   1.248       .  A
O253       Al260   1.878       .  S
O254       Al260   1.870       .  S
O255        C262   1.252       .  A
O256       Al260   1.784       .  S
O257        C258   1.272       .  A
C258       C1397   1.489       .  S
C259       C1557   1.465       .  S
C262       C1374   1.476       .  S
C263        O264   1.273       .  A
C263       C1384   1.478       .  S
O265        C280   1.277       .  A
O265       Al273   1.946       .  S
C266        O276   1.270       .  A
C266        O267   1.267       .  A
C266       C1314   1.469       .  S
O267       Al269   1.898       .  S
O268        C270   1.256       .  A
O268       Al269   1.899       .  S
Al269       O277   1.924       .  S
Al269       O279   1.908       .  S
Al269       O278   1.785       .  S
C270        O283   1.267       .  A
C270       C1427   1.499       .  S
O271        C281   1.258       .  A
O271       Al273   1.901       .  S
O272        C285   1.261       .  A
O272       Al282   1.876       .  S
Al273       O286   1.929       .  S
Al273       O283   1.970       .  S
Al273       O278   1.782       .  S
O274        C281   1.257       .  A
O274       Al282   1.889       .  S
O275        C284   1.255       .  A
O275       Al282   1.905       .  S
O276       Al282   1.920       .  S
O277        C284   1.258       .  A
O278       Al282   1.769       .  S
O279        C280   1.275       .  A
C280       C1334   1.487       .  S
C281       C1324   1.480       .  S
C284       C1344   1.490       .  S
C285        O286   1.269       .  A
C285       C1357   1.469       .  S
O287        C302   1.268       .  A
O287       Al295   1.925       .  S
C288        O298   1.274       .  A
C288        O289   1.273       .  A
C288       C1294   1.475   1_545  S
O289       Al291   1.916       .  S
O290        C292   1.256       .  A
O290       Al291   1.894       .  S
Al291       O299   1.912       .  S
Al291       O301   1.876       .  S
Al291       O300   1.777       .  S
C292        O305   1.253       .  A
C292       C1304   1.478       .  S
O293        C303   1.259       .  A
O293       Al295   1.953       .  S
O294        C307   1.276       .  A
O294       Al304   1.915       .  S
Al295       O308   1.936       .  S
Al295       O305   1.881       .  S
Al295       O300   1.781       .  S
O296        C303   1.250       .  A
O296       Al304   1.892       .  S
O297        C306   1.248       .  A
O297       Al304   1.885       .  S
O298       Al304   1.903       .  S
O299        C306   1.253       .  A
O300       Al304   1.789       .  S
O301        C302   1.261       .  A
C302       C1627   1.472       .  S
C303       C1284   1.480       .  S
C306       C1697   1.484       .  S
C307        O308   1.276       .  A
C307       C1337   1.486       .  S
O309        C324   1.263       .  A
O309       Al317   1.887       .  S
C310        O320   1.265       .  A
C310        O311   1.277       .  A
C310       C1327   1.480       .  S
O311       Al313   1.943       .  S
O312        C314   1.246       .  A
O312       Al313   1.860       .  S
Al313       O321   1.911       .  S
Al313       O323   1.942       .  S
Al313       O322   1.791       .  S
C314        O327   1.262       .  A
C314       C1544   1.490       .  S
O315        C325   1.262       .  A
O315       Al317   1.925       .  S
O316        C329   1.267       .  A
O316       Al326   1.891       .  S
Al317       O330   1.953       .  S
Al317       O327   1.946       .  S
Al317       O322   1.800       .  S
O318        C325   1.252       .  A
O318       Al326   1.883       .  S
O319        C328   1.246       .  A
O319       Al326   1.871       .  S
O320       Al326   1.870       .  S
O321        C328   1.251       .  A
O322       Al326   1.781       .  S
O323        C324   1.273       .  A
C324       C1257   1.493       .  S
C325       C1244   1.469       .  S
C328       C1264   1.479       .  S
C329        O330   1.275       .  A
C329       C1277   1.478       .  S
O331        C346   1.268       .  A
O331       Al339   1.927       .  S
C332        O342   1.275       .  A
C332        O333   1.272       .  A
C332       C1307   1.478   1_655  S
O333       Al335   1.916       .  S
O334        C336   1.258       .  A
O334       Al335   1.894       .  S
Al335       O343   1.910       .  S
Al335       O345   1.877       .  S
Al335       O344   1.776       .  S
C336        O349   1.255       .  A
C336       C1234   1.480   1_545  S
O337        C347   1.260       .  A
O337       Al339   1.957       .  S
O338        C351   1.277       .  A
O338       Al348   1.912       .  S
Al339       O352   1.948       .  S
Al339       O349   1.887       .  S
Al339       O344   1.782       .  S
O340        C347   1.250       .  A
O340       Al348   1.891       .  S
O341        C350   1.250       .  A
O341       Al348   1.891       .  S
O342       Al348   1.914       .  S
O343        C350   1.254       .  A
O344       Al348   1.790       .  S
O345        C346   1.261       .  A
C346       C1797   1.473       .  S
C347       C1224   1.484       .  S
C350       C1617   1.484       .  S
C351        O352   1.278       .  A
C351       C1254   1.492       .  S
O353        C368   1.259       .  A
O353       Al361   1.874       .  S
C354        O364   1.266       .  A
C354        O355   1.275       .  A
C354       C1247   1.476       .  S
O355       Al357   1.939       .  S
O356        C358   1.248       .  A
O356       Al357   1.864       .  S
Al357       O365   1.907       .  S
Al357       O367   1.935       .  S
Al357       O366   1.789       .  S
C358        O371   1.262       .  A
C358       C1367   1.489       .  S
O359        C369   1.260       .  A
O359       Al361   1.911       .  S
O360        C373   1.269       .  A
O360       Al370   1.898       .  S
Al361       O374   1.948       .  S
Al361       O371   1.941       .  S
Al361       O366   1.796       .  S
O362        C369   1.255       .  A
O362       Al370   1.891       .  S
O363        C372   1.249       .  A
O363       Al370   1.883       .  S
O364       Al370   1.874       .  S
O365        C372   1.252       .  A
O366       Al370   1.783       .  S
O367        C368   1.271       .  A
C368       C1194   1.485       .  S
C369       C1317   1.475       .  S
C372       C1207   1.475       .  S
C373        O374   1.274       .  A
C373       C1217   1.476       .  S
O375        C390   1.268       .  A
O375       Al383   1.925       .  S
C376        O386   1.272       .  A
C376        O377   1.272       .  A
C376       C1237   1.480       .  S
O377       Al379   1.919       .  S
O378        C380   1.257       .  A
O378       Al379   1.892       .  S
Al379       O387   1.909       .  S
Al379       O389   1.883       .  S
Al379       O388   1.776       .  S
C380        O393   1.254       .  A
C380       C1297   1.474   1_655  S
O381        C391   1.260       .  A
O381       Al383   1.950       .  S
O382        C395   1.276       .  A
O382       Al392   1.914       .  S
Al383       O396   1.934       .  S
Al383       O393   1.876       .  S
Al383       O388   1.780       .  S
O384        C391   1.252       .  A
O384       Al392   1.897       .  S
O385        C394   1.252       .  A
O385       Al392   1.894       .  S
O386       Al392   1.911       .  S
O387        C394   1.255       .  A
O388       Al392   1.789       .  S
O389        C390   1.261       .  A
C390       C1707   1.474       .  S
C391       C1184   1.480       .  S
C394       C1807   1.483       .  S
C395        O396   1.274       .  A
C395       C1197   1.487       .  S
O397        C412   1.247       .  A
O397       Al405   1.856       .  S
C398        O408   1.270       .  A
C398        O399   1.275       .  A
C398       C1487   1.476       .  S
O399       Al401   1.948       .  S
O400        C402   1.262       .  A
O400       Al401   1.887       .  S
Al401       O409   1.920       .  S
Al401       O411   1.940       .  S
Al401       O410   1.799       .  S
C402        O415   1.269       .  A
C402       C1164   1.486       .  S
O403        C413   1.250       .  A
O403       Al405   1.912       .  S
O404        C417   1.268       .  A
O404       Al414   1.874       .  S
Al405       O418   1.937       .  S
Al405       O415   1.924       .  S
Al405       O410   1.795       .  S
O406        C413   1.245       .  A
O406       Al414   1.867       .  S
O407        C416   1.249       .  A
O407       Al414   1.876       .  S
O408       Al414   1.894       .  S
O409        C416   1.259       .  A
O410       Al414   1.782       .  S
O411        C412   1.262       .  A
C412       C1144   1.492       .  S
C413       C1527   1.478       .  S
C416       C1157   1.472       .  S
C417        O418   1.276       .  A
C417       C1174   1.477       .  S
O419        C434   1.270       .  A
O419       Al427   1.933       .  S
C420        O430   1.276       .  A
C420        O421   1.275       .  A
C420       C1114   1.480       .  S
O421       Al423   1.921       .  S
O422        C424   1.256       .  A
O422       Al423   1.893       .  S
Al423       O431   1.911       .  S
Al423       O433   1.878       .  S
Al423       O432   1.773       .  S
C424        O437   1.253       .  A
C424       C1104   1.479   1_565  S
O425        C435   1.262       .  A
O425       Al427   1.972       .  S
O426        C439   1.279       .  A
O426       Al436   1.912       .  S
Al427       O440   1.938       .  S
Al427       O437   1.880       .  S
Al427       O432   1.783       .  S
O428        C435   1.248       .  A
O428       Al436   1.885       .  S
O429        C438   1.248       .  A
O429       Al436   1.887       .  S
O430       Al436   1.912       .  S
O431        C438   1.252       .  A
O432       Al436   1.790       .  S
O433        C434   1.262       .  A
C434       C1124   1.475       .  S
C435       C1187   1.494       .  S
C438       C1134   1.485       .  S
C439        O440   1.278       .  A
C439       C1167   1.485       .  S
O441        C456   1.263       .  A
O441       Al449   1.892       .  S
C442        O452   1.266       .  A
C442        O443   1.275       .  A
C442       C1154   1.474       .  S
O443       Al445   1.938       .  S
O444        C446   1.247       .  A
O444       Al445   1.859       .  S
Al445       O453   1.911       .  S
Al445       O455   1.936       .  S
Al445       O454   1.794       .  S
C446        O459   1.263       .  A
C446       C1074   1.492       .  S
O447        C457   1.261       .  A
O447       Al449   1.923       .  S
O448        C461   1.267       .  A
O448       Al458   1.892       .  S
Al449       O462   1.948       .  S
Al449       O459   1.945       .  S
Al449       O454   1.802       .  S
O450        C457   1.252       .  A
O450       Al458   1.883       .  S
O451        C460   1.246       .  A
O451       Al458   1.873       .  S
O452       Al458   1.873       .  S
O453        C460   1.251       .  A
O454       Al458   1.784       .  S
O455        C456   1.271       .  A
C456       C1084   1.493       .  S
C457       C1097   1.471       .  S
C460       C1497   1.479       .  S
C461        O462   1.274       .  A
C461       C1407   1.476       .  S
O463        C478   1.270       .  A
O463       Al471   1.933       .  S
C464        O474   1.276       .  A
C464        O465   1.274       .  A
C464       C1107   1.478   1_455  S
O465       Al467   1.917       .  S
O466        C468   1.257       .  A
O466       Al467   1.891       .  S
Al467       O475   1.912       .  S
Al467       O477   1.874       .  S
Al467       O476   1.773       .  S
C468        O481   1.256       .  A
C468       C1047   1.482       .  S
O469        C479   1.260       .  A
O469       Al471   1.970       .  S
O470        C483   1.279       .  A
O470       Al480   1.913       .  S
Al471       O484   1.955       .  S
Al471       O481   1.892       .  S
Al471       O476   1.782       .  S
O472        C479   1.247       .  A
O472       Al480   1.884       .  S
O473        C482   1.248       .  A
O473       Al480   1.885       .  S
O474       Al480   1.916       .  S
O475        C482   1.253       .  A
O476       Al480   1.789       .  S
O477        C478   1.261       .  A
C478       C1054   1.474       .  S
C479       C1227   1.496       .  S
C482       C1064   1.483       .  S
C483        O484   1.281       .  A
C483       C1087   1.493       .  S
O485        C500   1.264       .  A
O485       Al493   1.899       .  S
C486        O496   1.267       .  A
C486        O487   1.275       .  A
C486       C1094   1.480       .  S
O487       Al489   1.940       .  S
O488        C490   1.246       .  A
O488       Al489   1.851       .  S
Al489       O497   1.907       .  S
Al489       O499   1.931       .  S
Al489       O498   1.795       .  S
C490        O503   1.262       .  A
C490       C1024   1.489       .  S
O491        C501   1.262       .  A
O491       Al493   1.929       .  S
O492        C505   1.269       .  A
O492       Al502   1.896       .  S
Al493       O506   1.944       .  S
Al493       O503   1.944       .  S
Al493       O498   1.803       .  S
O494        C501   1.250       .  A
O494       Al502   1.875       .  S
O495        C504   1.246       .  A
O495       Al502   1.874       .  S
O496       Al502   1.876       .  S
O497        C504   1.250       .  A
O498       Al502   1.782       .  S
O499        C500   1.270       .  A
C500       C1034   1.494       .  S
C501       C1177   1.473       .  S
C504       C1417   1.477       .  S
C505        O506   1.274       .  A
C505       C1537   1.477       .  S
O507        C522   1.269       .  A
O507       Al515   1.927       .  S
C508        O518   1.276       .  A
C508        O509   1.275       .  A
C508       C1044   1.482   1_565  S
O509       Al511   1.923       .  S
O510        C512   1.256       .  A
O510       Al511   1.888       .  S
Al511       O519   1.911       .  S
Al511       O521   1.875       .  S
Al511       O520   1.771       .  S
C512        O525   1.256       .  A
C512       C1117   1.481   1_455  S
O513        C523   1.261       .  A
O513       Al515   1.973       .  S
O514        C527   1.279       .  A
O514       Al524   1.913       .  S
Al515       O528   1.955       .  S
Al515       O525   1.892       .  S
Al515       O520   1.783       .  S
O516        C523   1.246       .  A
O516       Al524   1.883       .  S
O517        C526   1.248       .  A
O517       Al524   1.886       .  S
O518       Al524   1.919       .  S
O519        C526   1.252       .  A
O520       Al524   1.789       .  S
O521        C522   1.262       .  A
C522       C1014   1.472       .  S
C523       C1287   1.495       .  S
C526       C1004   1.483       .  S
C527        O528   1.281       .  A
C527       C1037   1.493       .  S
O529        C544   1.270       .  A
O529       Al537   1.936       .  S
C530        O540   1.276       .  A
C530        O531   1.273       .  A
C530        C984   1.477       .  S
O531       Al533   1.915       .  S
O532        C534   1.257       .  A
O532       Al533   1.888       .  S
Al533       O541   1.912       .  S
Al533       O543   1.869       .  S
Al533       O542   1.770       .  S
C534        O547   1.255       .  A
C534        C974   1.477       .  S
O535        C545   1.260       .  A
O535       Al537   1.974   1_554  S
O536        C549   1.278       .  A
O536       Al546   1.906       .  S
Al537       O550   1.954   1_556  S
Al537       O547   1.884       .  S
Al537       O542   1.782       .  S
O538        C545   1.246       .  A
O538       Al546   1.882   1_554  S
O539        C548   1.248       .  A
O539       Al546   1.885       .  S
O540       Al546   1.916       .  S
O541        C548   1.253       .  A
O542       Al546   1.789       .  S
O543        C544   1.260       .  A
C544       C1347   1.473       .  S
C545        C964   1.496       .  S
C548       C1214   1.483       .  S
C549        O550   1.281   1_556  A
C549        C994   1.489       .  S
O551        C566   1.263       .  A
O551       Al559   1.887       .  S
C552        O562   1.265       .  A
C552        O553   1.274       .  A
C552        C947   1.474       .  S
O553       Al555   1.931       .  S
O554        C556   1.247   1_554  A
O554       Al555   1.865       .  S
Al555       O563   1.914       .  S
Al555       O565   1.934       .  S
Al555       O564   1.792       .  S
C556        O569   1.262       .  A
C556       C1077   1.487       .  S
O557        C567   1.262       .  A
O557       Al559   1.925       .  S
O558        C571   1.267       .  A
O558       Al568   1.893       .  S
Al559       O572   1.949       .  S
Al559       O569   1.941   1_554  S
Al559       O564   1.800       .  S
O560        C567   1.253       .  A
O560       Al568   1.884       .  S
O561        C570   1.247       .  A
O561       Al568   1.873       .  S
O562       Al568   1.870       .  S
O563        C570   1.253       .  A
O564       Al568   1.781       .  S
O565        C566   1.271       .  A
C566        C997   1.488       .  S
C567        C957   1.474       .  S
C570       C1654   1.479       .  S
C571        O572   1.273       .  A
C571       C1867   1.477       .  S
O573        C588   1.270       .  A
O573       Al581   1.934       .  S
C574        O584   1.273       .  A
C574        O575   1.273       .  A
C574        C977   1.477       .  S
O575       Al577   1.917       .  S
O576        C578   1.257       .  A
O576       Al577   1.893       .  S
Al577       O585   1.909       .  S
Al577       O587   1.872       .  S
Al577       O586   1.771       .  S
C578        O591   1.254       .  A
C578        C924   1.479       .  S
O579        C589   1.261       .  A
O579       Al581   1.964   1_554  S
O580        C593   1.279       .  A
O580       Al590   1.915       .  S
Al581       O594   1.939       .  S
Al581       O591   1.882       .  S
Al581       O586   1.783       .  S
O582        C589   1.249       .  A
O582       Al590   1.889   1_554  S
O583        C592   1.251       .  A
O583       Al590   1.902       .  S
O584       Al590   1.910       .  S
O585        C592   1.252       .  A
O586       Al590   1.792       .  S
O587        C588   1.260       .  A
C588       C1267   1.474       .  S
C589        C914   1.494       .  S
C592       C1354   1.487       .  S
C593        O594   1.278       .  A
C593        C934   1.487       .  S
O595        C610   1.264       .  A
O595       Al603   1.888       .  S
C596        O606   1.265       .  A
C596        O597   1.271       .  A
C596        C954   1.474       .  S
O597       Al599   1.926       .  S
O598        C600   1.244   1_554  A
O598       Al599   1.859       .  S
Al599       O607   1.907       .  S
Al599       O609   1.932       .  S
Al599       O608   1.797       .  S
C600        O613   1.259       .  A
C600       C1147   1.479       .  S
O601        C611   1.262       .  A
O601       Al603   1.917       .  S
O602        C615   1.266       .  A
O602       Al612   1.900       .  S
Al603       O616   1.940       .  S
Al603       O613   1.935   1_554  S
Al603       O608   1.806       .  S
O604        C611   1.253       .  A
O604       Al612   1.880       .  S
O605        C614   1.247       .  A
O605       Al612   1.871       .  S
O606       Al612   1.877       .  S
O607        C614   1.251       .  A
O608       Al612   1.787       .  S
O609        C610   1.272       .  A
C610        C937   1.487       .  S
C611        C904   1.468       .  S
C614       C1857   1.478       .  S
C615        O616   1.270       .  A
C615       C1757   1.479       .  S
O617        C632   1.262       .  A
O617       Al625   1.886       .  S
C618        O628   1.263       .  A
C618        O619   1.272       .  A
C618        C907   1.475       .  S
O619       Al621   1.933       .  S
O620        C622   1.247   1_554  A
O620       Al621   1.860       .  S
Al621       O629   1.911       .  S
Al621       O631   1.939       .  S
Al621       O630   1.790       .  S
C622        O635   1.263       .  A
C622       C1027   1.484       .  S
O623        C633   1.262       .  A
O623       Al625   1.916       .  S
O624        C637   1.267       .  A
O624       Al634   1.896       .  S
Al625       O638   1.950       .  S
Al625       O635   1.944   1_554  S
Al625       O630   1.799       .  S
O626        C633   1.254       .  A
O626       Al634   1.885       .  S
O627        C636   1.250       .  A
O627       Al634   1.881       .  S
O628       Al634   1.869       .  S
O629        C636   1.254       .  A
O630       Al634   1.782       .  S
O631        C632   1.272       .  A
C632        C894   1.490       .  S
C633        C944   1.465       .  S
C636       C1747   1.478       .  S
C637        O638   1.273       .  A
C637       C1667   1.479       .  S
O639        C654   1.267       .  A
O639       Al647   1.923       .  S
C640        O650   1.275       .  A
C640        O641   1.273       .  A
C640        C927   1.480       .  S
O641       Al643   1.915       .  S
O642        C644   1.258       .  A
O642       Al643   1.895       .  S
Al643       O651   1.913       .  S
Al643       O653   1.877       .  S
Al643       O652   1.776       .  S
C644        O657   1.253       .  A
C644        C987   1.477       .  S
O645        C655   1.257       .  A
O645       Al647   1.950   1_554  S
O646        C659   1.278       .  A
O646       Al656   1.917       .  S
Al647       O660   1.938       .  S
Al647       O657   1.879       .  S
Al647       O652   1.781       .  S
O648        C655   1.248       .  A
O648       Al656   1.892   1_554  S
O649        C658   1.250       .  A
O649       Al656   1.892       .  S
O650       Al656   1.918       .  S
O651        C658   1.254       .  A
O652       Al656   1.790       .  S
O653        C654   1.261       .  A
C654       C1204   1.473       .  S
C655        C884   1.479       .  S
C658       C1274   1.485       .  S
C659        O660   1.277       .  A
C659        C897   1.490       .  S
O661        C676   1.262       .  A
O661       Al669   1.885       .  S
C662        O672   1.265       .  A
C662        O663   1.273       .  A
C662        C854   1.474   1_655  S
O663       Al665   1.931       .  S
O664        C666   1.247       .  A
O664       Al665   1.860       .  S
Al665       O673   1.910       .  S
Al665       O675   1.925       .  S
Al665       O674   1.791       .  S
C666        O679   1.264       .  A
C666       C1677   1.488       .  S
O667        C677   1.263       .  A
O667       Al669   1.924       .  S
O668        C681   1.269       .  A
O668       Al678   1.896       .  S
Al669       O682   1.952       .  S
Al669       O679   1.946       .  S
Al669       O674   1.796       .  S
O670        C677   1.251       .  A
O670       Al678   1.876       .  S
O671        C680   1.248       .  A
O671       Al678   1.875       .  S
O672       Al678   1.869       .  S
O673        C680   1.252       .  A
O674       Al678   1.781       .  S
O675        C676   1.269       .  A
C676        C874   1.486       .  S
C677        C864   1.473       .  S
C680       C1017   1.475       .  S
C681        O682   1.275       .  A
C681       C1137   1.479       .  S
O683        C698   1.267       .  A
O683       Al691   1.926       .  S
C684        O694   1.272       .  A
C684        O685   1.273       .  A
C684        C844   1.476       .  S
O685       Al687   1.919       .  S
O686        C688   1.257       .  A
O686       Al687   1.893       .  S
Al687       O695   1.910       .  S
Al687       O697   1.877       .  S
Al687       O696   1.774       .  S
C688        O701   1.256       .  A
C688        C834   1.481       .  S
O689        C699   1.260       .  A
O689       Al691   1.954       .  S
O690        C703   1.275       .  A
O690       Al700   1.904       .  S
Al691       O704   1.943       .  S
Al691       O701   1.892       .  S
Al691       O696   1.781       .  S
O692        C699   1.250       .  A
O692       Al700   1.894       .  S
O693        C702   1.251       .  A
O693       Al700   1.898       .  S
O694       Al700   1.904       .  S
O695        C702   1.254       .  A
O696       Al700   1.791       .  S
O697        C698   1.260       .  A
C698       C1377   1.473       .  S
C699        C967   1.483       .  S
C702       C1447   1.485       .  S
C703        O704   1.277       .  A
C703        C877   1.484       .  S
O705        C720   1.265       .  A
O705       Al713   1.904       .  S
C706        O716   1.266       .  A
C706        O707   1.272       .  A
C706        C867   1.467   1_545  S
O707       Al709   1.925       .  S
O708        C710   1.246       .  A
O708       Al709   1.854       .  S
Al709       O717   1.909       .  S
Al709       O719   1.921       .  S
Al709       O718   1.799       .  S
C710        O723   1.260       .  A
C710       C1767   1.489       .  S
O711        C721   1.260       .  A
O711       Al713   1.922       .  S
O712        C725   1.268       .  A
O712       Al722   1.894       .  S
Al713       O726   1.937       .  S
Al713       O723   1.935       .  S
Al713       O718   1.805       .  S
O714        C721   1.250       .  A
O714       Al722   1.878       .  S
O715        C724   1.245       .  A
O715       Al722   1.869       .  S
O716       Al722   1.876       .  S
O717        C724   1.250       .  A
O718       Al722   1.786       .  S
O719        C720   1.269       .  A
C720        C824   1.492       .  S
C721        C814   1.473   1_655  S
C724       C1127   1.479       .  S
C725        O726   1.271       .  A
C725       C1067   1.475       .  S
O727        C742   1.271       .  A
O727       Al735   1.935       .  S
C728        O738   1.278       .  A
C728        O729   1.277       .  A
C728        C837   1.482       .  S
O729       Al731   1.921       .  S
O730        C732   1.256       .  A
O730       Al731   1.891       .  S
Al731       O739   1.912       .  S
Al731       O741   1.878       .  S
Al731       O740   1.771       .  S
C732        O745   1.253       .  A
C732        C804   1.477       .  S
O733        C743   1.257       .  A
O733       Al735   1.964       .  S
O734        C747   1.280       .  A
O734       Al744   1.913       .  S
Al735       O748   1.951       .  S
Al735       O745   1.883       .  S
Al735       O740   1.782       .  S
O736        C743   1.244       .  A
O736       Al744   1.880       .  S
O737        C746   1.245       .  A
O737       Al744   1.878       .  S
O738       Al744   1.918       .  S
O739        C746   1.251       .  A
O740       Al744   1.789       .  S
O741        C742   1.262       .  A
C742       C1587   1.477       .  S
C743        C887   1.493       .  S
C746       C1387   1.484       .  S
C747        O748   1.282       .  A
C747        C827   1.492       .  S
O749        C764   1.267       .  A
O749       Al757   1.924       .  S
C750        O760   1.271       .  A
C750        O751   1.270       .  A
C750        C807   1.476       .  S
O751       Al753   1.914       .  S
O752        C754   1.258       .  A
O752       Al753   1.892       .  S
Al753       O761   1.910       .  S
Al753       O763   1.873       .  S
Al753       O762   1.774       .  S
C754        O767   1.255       .  A
C754        C847   1.476       .  S
O755        C765   1.261       .  A
O755       Al757   1.953       .  S
O756        C769   1.275       .  A
O756       Al766   1.909       .  S
Al757       O770   1.936       .  S
Al757       O767   1.884       .  S
Al757       O762   1.781       .  S
O758        C765   1.251       .  A
O758       Al766   1.893       .  S
O759        C768   1.254       .  A
O759       Al766   1.905       .  S
O760       Al766   1.913       .  S
O761        C768   1.256       .  A
O762       Al766   1.788       .  S
O763        C764   1.259       .  A
C764       C1457   1.468       .  S
C765        C917   1.480       .  S
C768       C1597   1.485       .  S
C769        O770   1.275       .  A
C769        C794   1.485       .  S
O771        C786   1.262       .  A
O771       Al779   1.877       .  S
C772        O782   1.265       .  A
C772        O773   1.274       .  A
C772        C817   1.479       .  S
O773       Al775   1.936       .  S
O774        C776   1.247       .  A
O774       Al775   1.864       .  S
Al775       O783   1.917       .  S
Al775       O785   1.939       .  S
Al775       O784   1.793       .  S
C776        O789   1.259       .  A
C776       C1607   1.481       .  S
O777        C787   1.261       .  A
O777       Al779   1.916       .  S
O778        C791   1.266       .  A
O778       Al788   1.895       .  S
Al779       O792   1.942       .  S
Al779       O789   1.928       .  S
Al779       O784   1.802       .  S
O780        C787   1.252       .  A
O780       Al788   1.876       .  S
O781        C790   1.246       .  A
O781       Al788   1.867       .  S
O782       Al788   1.875       .  S
O783        C790   1.254       .  A
O784       Al788   1.782       .  S
O785        C786   1.272       .  A
C786        C797   1.487       .  S
C787        C857   1.462   1_545  S
C790       C1057   1.480       .  S
C791        O792   1.271       .  A
C791       C1007   1.475       .  S
C793        C794   1.410       .  A
C793        C798   1.402       .  A
C793        H799   1.083       .  S
C794        C795   1.402       .  A
C795        C796   1.398       .  A
C795        H800   1.083       .  S
C796        C797   1.410       .  A
C796        H801   1.083       .  S
C797        C798   1.404       .  A
C798        H802   1.083       .  S
C803        C804   1.407       .  A
C803        C808   1.400       .  A
C803        H809   1.083       .  S
C804        C805   1.404       .  A
C805        C806   1.392       .  A
C805        H810   1.083       .  S
C806        C807   1.405       .  A
C806        H811   1.083       .  S
C807        C808   1.404       .  A
C808        H812   1.082       .  S
C813        C814   1.403       .  A
C813        C818   1.404       .  A
C813        H819   1.083       .  S
C814        C815   1.404       .  A
C815        C816   1.393       .  A
C815        H820   1.084   1_455  S
C816        C817   1.404       .  A
C816        H821   1.083       .  S
C817        C818   1.408       .  A
C818        H822   1.082       .  S
C823        C824   1.405       .  A
C823        C828   1.402       .  A
C823        H829   1.083       .  S
C824        C825   1.409       .  A
C825        C826   1.403       .  A
C825        H830   1.083       .  S
C826        C827   1.406       .  A
C826        H831   1.083       .  S
C827        C828   1.409       .  A
C828        H832   1.083       .  S
C833        C834   1.408       .  A
C833        C838   1.401       .  A
C833        H839   1.083       .  S
C834        C835   1.404       .  A
C835        C836   1.395       .  A
C835        H840   1.083       .  S
C836        C837   1.407       .  A
C836        H841   1.083       .  S
C837        C838   1.405       .  A
C838        H842   1.083       .  S
C843        C844   1.404       .  A
C843        C848   1.398       .  A
C843        H849   1.083       .  S
C844        C845   1.407       .  A
C845        C846   1.393       .  A
C845        H850   1.083       .  S
C846        C847   1.403       .  A
C846        H851   1.083       .  S
C847        C848   1.407       .  A
C848        H852   1.083       .  S
C853        C854   1.408       .  A
C853        C858   1.401       .  A
C853        H859   1.082       .  S
C854        C855   1.403       .  A
C855        C856   1.389       .  A
C855        H860   1.083       .  S
C856        C857   1.402       .  A
C856        H861   1.084   1_565  S
C857        C858   1.401       .  A
C858        H862   1.083       .  S
C863        C864   1.402       .  A
C863        C868   1.401       .  A
C863        H869   1.083       .  S
C864        C865   1.408       .  A
C865        C866   1.389       .  A
C865        H870   1.084       .  S
C866        C867   1.398       .  A
C866        H871   1.084       .  S
C867        C868   1.406       .  A
C868        H872   1.080       .  S
C873        C874   1.405       .  A
C873        C878   1.401       .  A
C873        H879   1.083       .  S
C874        C875   1.409       .  A
C875        C876   1.399       .  A
C875        H880   1.083       .  S
C876        C877   1.403       .  A
C876        H881   1.083       .  S
C877        C878   1.408       .  A
C878        H882   1.083       .  S
C883        C884   1.398       .  A
C883        C888   1.392       .  A
C883        H889   1.084       .  S
C884        C885   1.410       .  A
C885        C886   1.414       .  A
C885        H890   1.083       .  S
C886        C887   1.408       .  A
C886        H891   1.083       .  S
C887        C888   1.409       .  A
C888        H892   1.083       .  S
C893        C894   1.410   1_556  A
C893        C898   1.402   1_455  A
C893        H899   1.083       .  S
C894        C895   1.404       .  A
C895        C896   1.402   1_455  A
C895        H900   1.083       .  S
C896        C897   1.411   1_554  A
C896        H901   1.083       .  S
C897        C898   1.404       .  A
C898        H902   1.083       .  S
C903        C904   1.403       .  A
C903        C908   1.392       .  A
C903        H909   1.084       .  S
C904        C905   1.402       .  A
C905        C906   1.402       .  A
C905        H910   1.083       .  S
C906        C907   1.407       .  A
C906        H911   1.082       .  S
C907        C908   1.404       .  A
C908        H912   1.084       .  S
C913        C914   1.409       .  A
C913        C918   1.391       .  A
C913        H919   1.083       .  S
C914        C915   1.409       .  A
C915        C916   1.414       .  A
C915        H920   1.083       .  S
C916        C917   1.409       .  A
C916        H921   1.083       .  S
C917        C918   1.399       .  A
C918        H922   1.084       .  S
C923        C924   1.403       .  A
C923        C928   1.394       .  A
C923        H929   1.083       .  S
C924        C925   1.408       .  A
C925        C926   1.400       .  A
C925        H930   1.083   1_556  S
C926        C927   1.404       .  A
C926        H931   1.083       .  S
C927        C928   1.408       .  A
C928        H932   1.083       .  S
C933        C934   1.403       .  A
C933        C938   1.401   1_545  A
C933        H939   1.083       .  S
C934        C935   1.410   1_556  A
C935        C936   1.401   1_545  A
C935        H940   1.083       .  S
C936        C937   1.403       .  A
C936        H941   1.083       .  S
C937        C938   1.410   1_554  A
C938        H942   1.083       .  S
C943        C944   1.403       .  A
C943        C948   1.391       .  A
C943        H949   1.084       .  S
C944        C945   1.401       .  A
C945        C946   1.401       .  A
C945        H950   1.083       .  S
C946        C947   1.407       .  A
C946        H951   1.082       .  S
C947        C948   1.404       .  A
C948        H952   1.083       .  S
C953        C954   1.408       .  A
C953        C958   1.403       .  A
C953        H959   1.082       .  S
C954        C955   1.401       .  A
C955        C956   1.391       .  A
C955        H960   1.084       .  S
C956        C957   1.406       .  A
C956        H961   1.084       .  S
C957        C958   1.403       .  A
C958        H962   1.083       .  S
C963        C964   1.409       .  A
C963        C968   1.416       .  A
C963        H969   1.083       .  S
C964        C965   1.410       .  A
C965        C966   1.391       .  A
C965        H970   1.083       .  S
C966        C967   1.399       .  A
C966        H971   1.084       .  S
C967        C968   1.411       .  A
C968        H972   1.083       .  S
C973        C974   1.403       .  A
C973        C978   1.392       .  A
C973        H979   1.083       .  S
C974        C975   1.408       .  A
C975        C976   1.400       .  A
C975        H980   1.083   1_556  S
C976        C977   1.405       .  A
C976        H981   1.083       .  S
C977        C978   1.406       .  A
C978        H982   1.083       .  S
C983        C984   1.404       .  A
C983        C988   1.399       .  A
C983        H989   1.083       .  S
C984        C985   1.408       .  A
C985        C986   1.393       .  A
C985        H990   1.083       .  S
C986        C987   1.403       .  A
C986        H991   1.083       .  S
C987        C988   1.408       .  A
C988        H992   1.083       .  S
C993        C994   1.405       .  A
C993        C998   1.400       .  A
C993        H999   1.083       .  S
C994        C995   1.410   1_556  A
C995        C996   1.403       .  A
C995       H1000   1.083       .  S
C996        C997   1.405       .  A
C996       H1001   1.083       .  S
C997        C998   1.409   1_554  A
C998       H1002   1.083       .  S
C1003      C1004   1.409   1_545  A
C1003      C1008   1.397   1_556  A
C1003      H1009   1.083       .  S
C1004      C1005   1.404   1_556  A
C1005      C1006   1.400       .  A
C1005      H1010   1.083       .  S
C1006      C1007   1.408   1_565  A
C1006      H1011   1.084       .  S
C1007      C1008   1.401       .  A
C1008      H1012   1.083       .  S
C1013      C1014   1.406       .  A
C1013      C1018   1.401   1_456  A
C1013      H1019   1.083       .  S
C1014      C1015   1.404   1_455  A
C1015      C1016   1.400       .  A
C1015      H1020   1.084       .  S
C1016      C1017   1.406   1_556  A
C1016      H1021   1.084       .  S
C1017      C1018   1.404       .  A
C1018      H1022   1.083   1_655  S
C1023      C1024   1.413       .  A
C1023      C1028   1.400       .  A
C1023      H1029   1.081       .  S
C1024      C1025   1.401       .  A
C1025      C1026   1.405       .  A
C1025      H1030   1.083       .  S
C1026      C1027   1.412       .  A
C1026      H1031   1.081       .  S
C1027      C1028   1.398       .  A
C1028      H1032   1.083       .  S
C1033      C1034   1.410       .  A
C1033      C1038   1.403       .  A
C1033      H1039   1.083       .  S
C1034      C1035   1.406       .  A
C1035      C1036   1.404       .  A
C1035      H1040   1.083       .  S
C1036      C1037   1.410       .  A
C1036      H1041   1.083       .  S
C1037      C1038   1.405       .  A
C1038      H1042   1.083       .  S
C1043      C1044   1.407       .  A
C1043      C1048   1.395       .  A
C1043      H1049   1.083       .  S
C1044      C1045   1.406       .  A
C1045      C1046   1.402       .  A
C1045      H1050   1.083       .  S
C1046      C1047   1.408       .  A
C1046      H1051   1.083       .  S
C1047      C1048   1.405       .  A
C1048      H1052   1.083       .  S
C1053      C1054   1.406       .  A
C1053      C1058   1.402   1_556  A
C1053      H1059   1.083       .  S
C1054      C1055   1.404       .  A
C1055      C1056   1.401       .  A
C1055      H1060   1.084       .  S
C1056      C1057   1.407   1_556  A
C1056      H1061   1.084       .  S
C1057      C1058   1.404       .  A
C1058      H1062   1.083       .  S
C1063      C1064   1.410   1_655  A
C1063      C1068   1.398   1_556  A
C1063      H1069   1.083       .  S
C1064      C1065   1.404   1_556  A
C1065      C1066   1.400       .  A
C1065      H1070   1.083       .  S
C1066      C1067   1.408   1_455  A
C1066      H1071   1.084       .  S
C1067      C1068   1.400       .  A
C1068      H1072   1.083       .  S
C1073      C1074   1.413       .  A
C1073      C1078   1.403       .  A
C1073      H1079   1.080       .  S
C1074      C1075   1.402       .  A
C1075      C1076   1.405       .  A
C1075      H1080   1.083       .  S
C1076      C1077   1.412       .  A
C1076      H1081   1.081       .  S
C1077      C1078   1.399       .  A
C1078      H1082   1.083       .  S
C1083      C1084   1.405       .  A
C1083      C1088   1.405       .  A
C1083      H1089   1.083       .  S
C1084      C1085   1.410       .  A
C1085      C1086   1.402       .  A
C1085      H1090   1.083       .  S
C1086      C1087   1.405       .  A
C1086      H1091   1.083       .  S
C1087      C1088   1.411       .  A
C1088      H1092   1.083       .  S
C1093      C1094   1.404       .  A
C1093      C1098   1.392       .  A
C1093      H1099   1.083       .  S
C1094      C1095   1.408       .  A
C1095      C1096   1.405       .  A
C1095      H1100   1.081       .  S
C1096      C1097   1.403       .  A
C1096      H1101   1.083       .  S
C1097      C1098   1.403       .  A
C1098      H1102   1.084       .  S
C1103      C1104   1.404       .  A
C1103      C1108   1.395       .  A
C1103      H1109   1.083       .  S
C1104      C1105   1.408       .  A
C1105      C1106   1.399       .  A
C1105      H1110   1.083       .  S
C1106      C1107   1.404       .  A
C1106      H1111   1.083       .  S
C1107      C1108   1.408       .  A
C1108      H1112   1.083       .  S
C1113      C1114   1.407       .  A
C1113      C1118   1.394       .  A
C1113      H1119   1.083       .  S
C1114      C1115   1.405       .  A
C1115      C1116   1.400       .  A
C1115      H1120   1.083       .  S
C1116      C1117   1.407       .  A
C1116      H1121   1.083       .  S
C1117      C1118   1.405       .  A
C1118      H1122   1.083       .  S
C1123      C1124   1.404   1_545  A
C1123      C1128   1.401       .  A
C1123      H1129   1.084       .  S
C1124      C1125   1.406       .  A
C1125      C1126   1.402   1_556  A
C1125      H1130   1.083       .  S
C1126      C1127   1.405   1_565  A
C1126      H1131   1.083       .  S
C1127      C1128   1.406   1_554  A
C1128      H1132   1.083       .  S
C1133      C1134   1.404   1_554  A
C1133      C1138   1.401       .  A
C1133      H1139   1.083       .  S
C1134      C1135   1.410       .  A
C1135      C1136   1.398   1_556  A
C1135      H1140   1.083       .  S
C1136      C1137   1.402       .  A
C1136      H1141   1.083       .  S
C1137      C1138   1.409       .  A
C1138      H1142   1.083       .  S
C1143      C1144   1.403       .  A
C1143      C1148   1.405       .  A
C1143      H1149   1.083       .  S
C1144      C1145   1.414       .  A
C1145      C1146   1.401       .  A
C1145      H1150   1.083       .  S
C1146      C1147   1.398       .  A
C1146      H1151   1.083       .  S
C1147      C1148   1.409       .  A
C1148      H1152   1.081       .  S
C1153      C1154   1.402       .  A
C1153      C1158   1.392       .  A
C1153      H1159   1.084       .  S
C1154      C1155   1.406       .  A
C1155      C1156   1.402       .  A
C1155      H1160   1.080       .  S
C1156      C1157   1.402       .  A
C1156      H1161   1.083       .  S
C1157      C1158   1.406       .  A
C1158      H1162   1.084       .  S
C1163      C1164   1.410       .  A
C1163      C1168   1.400       .  A
C1163      H1169   1.083       .  S
C1164      C1165   1.403       .  A
C1165      C1166   1.400       .  A
C1165      H1170   1.083       .  S
C1166      C1167   1.410       .  A
C1166      H1171   1.083       .  S
C1167      C1168   1.403       .  A
C1168      H1172   1.083       .  S
C1173      C1174   1.409       .  A
C1173      C1178   1.405       .  A
C1173      H1179   1.082       .  S
C1174      C1175   1.402       .  A
C1175      C1176   1.390       .  A
C1175      H1180   1.084       .  S
C1176      C1177   1.405       .  A
C1176      H1181   1.084       .  S
C1177      C1178   1.403       .  A
C1178      H1182   1.083       .  S
C1183      C1184   1.397       .  A
C1183      C1188   1.391       .  A
C1183      H1189   1.084       .  S
C1184      C1185   1.411       .  A
C1185      C1186   1.415       .  A
C1185      H1190   1.083       .  S
C1186      C1187   1.408       .  A
C1186      H1191   1.083       .  S
C1187      C1188   1.410       .  A
C1188      H1192   1.083       .  S
C1193      C1194   1.402       .  A
C1193      C1198   1.401       .  A
C1193      H1199   1.083       .  S
C1194      C1195   1.410       .  A
C1195      C1196   1.399       .  A
C1195      H1200   1.083       .  S
C1196      C1197   1.403       .  A
C1196      H1201   1.083       .  S
C1197      C1198   1.411       .  A
C1198      H1202   1.083       .  S
C1203      C1204   1.405       .  A
C1203      C1208   1.401       .  A
C1203      H1209   1.084       .  S
C1204      C1205   1.405       .  A
C1205      C1206   1.400       .  A
C1205      H1210   1.083       .  S
C1206      C1207   1.405       .  A
C1206      H1211   1.084       .  S
C1207      C1208   1.405       .  A
C1208      H1212   1.083       .  S
C1213      C1214   1.403       .  A
C1213      C1218   1.400       .  A
C1213      H1219   1.083       .  S
C1214      C1215   1.410       .  A
C1215      C1216   1.397       .  A
C1215      H1220   1.083       .  S
C1216      C1217   1.401       .  A
C1216      H1221   1.083       .  S
C1217      C1218   1.408       .  A
C1218      H1222   1.083       .  S
C1223      C1224   1.411       .  A
C1223      C1228   1.416   1_655  A
C1223      H1229   1.083       .  S
C1224      C1225   1.399       .  A
C1225      C1226   1.391       .  A
C1225      H1230   1.084       .  S
C1226      C1227   1.409   1_655  A
C1226      H1231   1.083       .  S
C1227      C1228   1.409       .  A
C1228      H1232   1.083       .  S
C1233      C1234   1.404       .  A
C1233      C1238   1.395       .  A
C1233      H1239   1.083       .  S
C1234      C1235   1.407       .  A
C1235      C1236   1.400       .  A
C1235      H1240   1.083       .  S
C1236      C1237   1.405       .  A
C1236      H1241   1.083       .  S
C1237      C1238   1.408       .  A
C1238      H1242   1.083       .  S
C1243      C1244   1.402       .  A
C1243      C1248   1.403       .  A
C1243      H1249   1.083       .  S
C1244      C1245   1.404       .  A
C1245      C1246   1.392       .  A
C1245      H1250   1.084       .  S
C1246      C1247   1.403       .  A
C1246      H1251   1.084       .  S
C1247      C1248   1.408       .  A
C1248      H1252   1.081       .  S
C1253      C1254   1.411       .  A
C1253      C1258   1.405       .  A
C1253      H1259   1.083       .  S
C1254      C1255   1.404       .  A
C1255      C1256   1.400       .  A
C1255      H1260   1.083       .  S
C1256      C1257   1.410       .  A
C1256      H1261   1.083       .  S
C1257      C1258   1.405       .  A
C1258      H1262   1.083       .  S
C1263      C1264   1.406       .  A
C1263      C1268   1.401       .  A
C1263      H1269   1.083       .  S
C1264      C1265   1.404       .  A
C1265      C1266   1.402       .  A
C1265      H1270   1.083       .  S
C1266      C1267   1.406       .  A
C1266      H1271   1.083       .  S
C1267      C1268   1.404       .  A
C1268      H1272   1.084       .  S
C1273      C1274   1.404       .  A
C1273      C1278   1.401       .  A
C1273      H1279   1.083       .  S
C1274      C1275   1.409       .  A
C1275      C1276   1.398       .  A
C1275      H1280   1.083       .  S
C1276      C1277   1.403       .  A
C1276      H1281   1.084       .  S
C1277      C1278   1.408       .  A
C1278      H1282   1.083       .  S
C1283      C1284   1.411       .  A
C1283      C1288   1.416   1_545  A
C1283      H1289   1.083       .  S
C1284      C1285   1.398       .  A
C1285      C1286   1.390       .  A
C1285      H1290   1.084       .  S
C1286      C1287   1.410   1_545  A
C1286      H1291   1.083       .  S
C1287      C1288   1.409       .  A
C1288      H1292   1.083       .  S
C1293      C1294   1.408       .  A
C1293      C1298   1.394       .  A
C1293      H1299   1.083       .  S
C1294      C1295   1.403       .  A
C1295      C1296   1.395       .  A
C1295      H1300   1.083       .  S
C1296      C1297   1.407       .  A
C1296      H1301   1.083       .  S
C1297      C1298   1.403       .  A
C1298      H1302   1.083       .  S
C1303      C1304   1.408       .  A
C1303      C1308   1.399       .  A
C1303      H1309   1.083       .  S
C1304      C1305   1.403       .  A
C1305      C1306   1.395       .  A
C1305      H1310   1.083       .  S
C1306      C1307   1.408       .  A
C1306      H1311   1.083       .  S
C1307      C1308   1.404       .  A
C1308      H1312   1.083       .  S
C1313      C1314   1.407       .  A
C1313      C1318   1.400       .  A
C1313      H1319   1.083       .  S
C1314      C1315   1.401       .  A
C1315      C1316   1.390       .  A
C1315      H1320   1.084       .  S
C1316      C1317   1.407       .  A
C1316      H1321   1.083       .  S
C1317      C1318   1.404       .  A
C1318      H1322   1.083       .  S
C1323      C1324   1.408       .  A
C1323      C1328   1.400       .  A
C1323      H1329   1.083       .  S
C1324      C1325   1.404       .  A
C1325      C1326   1.396       .  A
C1325      H1330   1.083       .  S
C1326      C1327   1.408       .  A
C1326      H1331   1.083       .  S
C1327      C1328   1.404       .  A
C1328      H1332   1.083       .  S
C1333      C1334   1.410       .  A
C1333      C1338   1.403       .  A
C1333      H1339   1.083       .  S
C1334      C1335   1.403       .  A
C1335      C1336   1.398       .  A
C1335      H1340   1.083       .  S
C1336      C1337   1.409       .  A
C1336      H1341   1.083       .  S
C1337      C1338   1.404       .  A
C1338      H1342   1.083       .  S
C1343      C1344   1.408       .  A
C1343      C1348   1.401       .  A
C1343      H1349   1.083       .  S
C1344      C1345   1.407       .  A
C1345      C1346   1.403       .  A
C1345      H1350   1.083       .  S
C1346      C1347   1.406       .  A
C1346      H1351   1.084       .  S
C1347      C1348   1.404       .  A
C1348      H1352   1.083       .  S
C1353      C1354   1.409       .  A
C1353      C1358   1.399       .  A
C1353      H1359   1.083       .  S
C1354      C1355   1.406       .  A
C1355      C1356   1.402       .  A
C1355      H1360   1.083       .  S
C1356      C1357   1.405       .  A
C1356      H1361   1.084       .  S
C1357      C1358   1.403       .  A
C1358      H1362   1.084       .  S
C1363      C1364   1.400       .  A
C1363      C1368   1.402       .  A
C1363      H1369   1.083       .  S
C1364      C1365   1.412       .  A
C1365      C1366   1.405       .  A
C1365      H1370   1.082       .  S
C1366      C1367   1.402       .  A
C1366      H1371   1.083       .  S
C1367      C1368   1.412       .  A
C1368      H1372   1.081       .  S
C1373      C1374   1.406       .  A
C1373      C1378   1.401       .  A
C1373      H1379   1.083       .  S
C1374      C1375   1.405       .  A
C1375      C1376   1.401       .  A
C1375      H1380   1.084       .  S
C1376      C1377   1.405       .  A
C1376      H1381   1.083       .  S
C1377      C1378   1.404       .  A
C1378      H1382   1.084       .  S
C1383      C1384   1.409       .  A
C1383      C1388   1.400       .  A
C1383      H1389   1.083       .  S
C1384      C1385   1.402       .  A
C1385      C1386   1.397       .  A
C1385      H1390   1.083       .  S
C1386      C1387   1.410       .  A
C1386      H1391   1.083       .  S
C1387      C1388   1.403       .  A
C1388      H1392   1.083       .  S
C1393      C1394   1.403       .  A
C1393      C1398   1.401   1_455  A
C1393      H1399   1.083       .  S
C1394      C1395   1.410       .  A
C1395      C1396   1.402   1_455  A
C1395      H1400   1.083       .  S
C1396      C1397   1.403       .  A
C1396      H1401   1.083       .  S
C1397      C1398   1.411       .  A
C1398      H1402   1.083       .  S
C1403      C1404   1.409       .  A
C1403      C1408   1.397       .  A
C1403      H1409   1.083       .  S
C1404      C1405   1.404       .  A
C1405      C1406   1.400       .  A
C1405      H1410   1.083       .  S
C1406      C1407   1.408       .  A
C1406      H1411   1.084       .  S
C1407      C1408   1.402       .  A
C1408      H1412   1.083       .  S
C1413      C1414   1.406       .  A
C1413      C1418   1.401       .  A
C1413      H1419   1.083       .  S
C1414      C1415   1.404       .  A
C1415      C1416   1.401       .  A
C1415      H1420   1.084       .  S
C1416      C1417   1.406       .  A
C1416      H1421   1.083       .  S
C1417      C1418   1.405       .  A
C1418      H1422   1.084       .  S
C1423      C1424   1.399       .  A
C1423      C1428   1.392       .  A
C1423      H1429   1.084       .  S
C1424      C1425   1.411       .  A
C1425      C1426   1.418       .  A
C1425      H1430   1.083       .  S
C1426      C1427   1.410       .  A
C1426      H1431   1.083       .  S
C1427      C1428   1.409       .  A
C1428      H1432   1.083       .  S
C1433      C1434   1.405       .  A
C1433      C1438   1.395       .  A
C1433      H1439   1.083       .  S
C1434      C1435   1.407       .  A
C1435      C1436   1.399       .  A
C1435      H1440   1.083       .  S
C1436      C1437   1.404       .  A
C1436      H1441   1.083       .  S
C1437      C1438   1.406       .  A
C1438      H1442   1.083       .  S
C1443      C1444   1.401       .  A
C1443      C1448   1.398       .  A
C1443      H1449   1.083       .  S
C1444      C1445   1.406       .  A
C1445      C1446   1.402       .  A
C1445      H1450   1.084       .  S
C1446      C1447   1.405       .  A
C1446      H1451   1.083       .  S
C1447      C1448   1.409       .  A
C1448      H1452   1.083       .  S
C1453      C1454   1.408       .  A
C1453      C1458   1.399       .  A
C1453      H1459   1.083       .  S
C1454      C1455   1.406       .  A
C1455      C1456   1.401       .  A
C1455      H1460   1.083       .  S
C1456      C1457   1.405       .  A
C1456      H1461   1.084       .  S
C1457      C1458   1.402       .  A
C1458      H1462   1.083       .  S
C1463      C1464   1.407       .  A
C1463      C1468   1.403       .  A
C1463      H1469   1.083       .  S
C1464      C1465   1.408       .  A
C1465      C1466   1.400       .  A
C1465      H1470   1.083       .  S
C1466      C1467   1.406       .  A
C1466      H1471   1.083       .  S
C1467      C1468   1.408       .  A
C1468      H1472   1.083       .  S
C1473      C1474   1.404       .  A
C1473      C1478   1.394       .  A
C1473      H1479   1.083       .  S
C1474      C1475   1.408       .  A
C1475      C1476   1.401       .  A
C1475      H1480   1.083       .  S
C1476      C1477   1.406       .  A
C1476      H1481   1.083       .  S
C1477      C1478   1.407       .  A
C1478      H1482   1.083       .  S
C1483      C1484   1.410       .  A
C1483      C1488   1.397       .  A
C1483      H1489   1.083       .  S
C1484      C1485   1.404       .  A
C1485      C1486   1.401       .  A
C1485      H1490   1.083       .  S
C1486      C1487   1.408       .  A
C1486      H1491   1.083       .  S
C1487      C1488   1.401       .  A
C1488      H1492   1.083       .  S
C1493      C1494   1.406       .  A
C1493      C1498   1.402       .  A
C1493      H1499   1.083       .  S
C1494      C1495   1.405       .  A
C1495      C1496   1.401       .  A
C1495      H1500   1.084       .  S
C1496      C1497   1.406       .  A
C1496      H1501   1.084       .  S
C1497      C1498   1.405       .  A
C1498      H1502   1.083       .  S
C1503      C1504   1.406       .  A
C1503      C1508   1.394       .  A
C1503      H1509   1.083       .  S
C1504      C1505   1.405       .  A
C1505      C1506   1.400       .  A
C1505      H1510   1.083       .  S
C1506      C1507   1.408       .  A
C1506      H1511   1.083       .  S
C1507      C1508   1.404       .  A
C1508      H1512   1.083       .  S
C1513      C1514   1.405       .  A
C1513      C1518   1.399       .  A
C1513      H1519   1.083       .  S
C1514      C1515   1.407       .  A
C1515      C1516   1.396       .  A
C1515      H1520   1.083       .  S
C1516      C1517   1.405       .  A
C1516      H1521   1.083       .  S
C1517      C1518   1.407       .  A
C1518      H1522   1.083       .  S
C1523      C1524   1.405       .  A
C1523      C1528   1.400       .  A
C1523      H1529   1.084       .  S
C1524      C1525   1.405       .  A
C1525      C1526   1.402       .  A
C1525      H1530   1.083       .  S
C1526      C1527   1.404       .  A
C1526      H1531   1.083       .  S
C1527      C1528   1.406       .  A
C1528      H1532   1.084       .  S
C1533      C1534   1.404       .  A
C1533      C1538   1.401       .  A
C1533      H1539   1.083       .  S
C1534      C1535   1.410       .  A
C1535      C1536   1.397       .  A
C1535      H1540   1.083       .  S
C1536      C1537   1.401       .  A
C1536      H1541   1.083       .  S
C1537      C1538   1.409       .  A
C1538      H1542   1.084       .  S
C1543      C1544   1.400       .  A
C1543      C1548   1.405       .  A
C1543      H1549   1.083       .  S
C1544      C1545   1.413       .  A
C1545      C1546   1.405       .  A
C1545      H1550   1.083       .  S
C1546      C1547   1.401       .  A
C1546      H1551   1.083       .  S
C1547      C1548   1.413       .  A
C1548      H1552   1.080       .  S
C1553      C1554   1.402       .  A
C1553      C1558   1.391       .  A
C1553      H1559   1.083       .  S
C1554      C1555   1.405       .  A
C1555      C1556   1.400       .  A
C1555      H1560   1.081       .  S
C1556      C1557   1.401       .  A
C1556      H1561   1.083       .  S
C1557      C1558   1.404       .  A
C1558      H1562   1.084       .  S
C1563      C1564   1.408       .  A
C1563      C1568   1.390       .  A
C1563      H1569   1.083       .  S
C1564      C1565   1.404       .  A
C1565      C1566   1.400       .  A
C1565      H1570   1.083       .  S
C1566      C1567   1.406       .  A
C1566      H1571   1.082       .  S
C1567      C1568   1.400       .  A
C1568      H1572   1.084       .  S
C1573      C1574   1.411       .  A
C1573      C1578   1.403   1_565  A
C1573      H1579   1.083       .  S
C1574      C1575   1.403       .  A
C1575      C1576   1.400   1_565  A
C1575      H1580   1.083       .  S
C1576      C1577   1.410       .  A
C1576      H1581   1.083       .  S
C1577      C1578   1.403       .  A
C1578      H1582   1.083       .  S
C1583      C1584   1.406       .  A
C1583      C1588   1.401       .  A
C1583      H1589   1.084       .  S
C1584      C1585   1.404       .  A
C1585      C1586   1.403       .  A
C1585      H1590   1.083       .  S
C1586      C1587   1.406       .  A
C1586      H1591   1.083       .  S
C1587      C1588   1.405       .  A
C1588      H1592   1.084       .  S
C1593      C1594   1.407       .  A
C1593      C1598   1.402       .  A
C1593      H1599   1.083       .  S
C1594      C1595   1.403       .  A
C1595      C1596   1.398       .  A
C1595      H1600   1.083       .  S
C1596      C1597   1.408       .  A
C1596      H1601   1.083       .  S
C1597      C1598   1.405       .  A
C1598      H1602   1.083       .  S
C1603      C1604   1.401       .  A
C1603      C1608   1.403       .  A
C1603      H1609   1.083       .  S
C1604      C1605   1.412       .  A
C1605      C1606   1.400       .  A
C1605      H1610   1.081       .  S
C1606      C1607   1.398       .  A
C1606      H1611   1.083       .  S
C1607      C1608   1.410       .  A
C1608      H1612   1.081       .  S
C1613      C1614   1.409   1_655  A
C1613      C1618   1.401       .  A
C1613      H1619   1.083       .  S
C1614      C1615   1.401       .  A
C1615      C1616   1.398       .  A
C1615      H1620   1.083       .  S
C1616      C1617   1.410   1_455  A
C1616      H1621   1.083       .  S
C1617      C1618   1.404       .  A
C1618      H1622   1.083       .  S
C1623      C1624   1.405       .  A
C1623      C1628   1.400       .  A
C1623      H1629   1.083       .  S
C1624      C1625   1.404       .  A
C1625      C1626   1.400       .  A
C1625      H1630   1.084       .  S
C1626      C1627   1.405       .  A
C1626      H1631   1.083       .  S
C1627      C1628   1.404       .  A
C1628      H1632   1.084       .  S
C1633      C1634   1.409       .  A
C1633      C1638   1.389       .  A
C1633      H1639   1.083       .  S
C1634      C1635   1.411       .  A
C1635      C1636   1.419       .  A
C1635      H1640   1.083       .  S
C1636      C1637   1.412       .  A
C1636      H1641   1.083       .  S
C1637      C1638   1.400       .  A
C1638      H1642   1.084       .  S
C1643      C1644   1.403       .  A
C1643      C1648   1.398       .  A
C1643      H1649   1.083       .  S
C1644      C1645   1.409       .  A
C1645      C1646   1.402       .  A
C1645      H1650   1.083       .  S
C1646      C1647   1.405       .  A
C1646      H1651   1.083       .  S
C1647      C1648   1.409       .  A
C1648      H1652   1.083       .  S
C1653      C1654   1.404       .  A
C1653      C1658   1.402       .  A
C1653      H1659   1.084       .  S
C1654      C1655   1.407       .  A
C1655      C1656   1.402       .  A
C1655      H1660   1.083       .  S
C1656      C1657   1.404       .  A
C1656      H1661   1.084       .  S
C1657      C1658   1.406       .  A
C1658      H1662   1.083       .  S
C1663      C1664   1.405       .  A
C1663      C1668   1.401       .  A
C1663      H1669   1.083       .  S
C1664      C1665   1.410       .  A
C1665      C1666   1.398       .  A
C1665      H1670   1.083       .  S
C1666      C1667   1.402       .  A
C1666      H1671   1.083       .  S
C1667      C1668   1.408       .  A
C1668      H1672   1.084       .  S
C1673      C1674   1.412   1_655  A
C1673      C1678   1.403       .  A
C1673      H1679   1.080       .  S
C1674      C1675   1.400       .  A
C1675      C1676   1.404       .  A
C1675      H1680   1.083       .  S
C1676      C1677   1.413   1_455  A
C1676      H1681   1.081       .  S
C1677      C1678   1.400       .  A
C1678      H1682   1.083       .  S
C1683      C1684   1.403       .  A
C1683      C1688   1.389       .  A
C1683      H1689   1.084   1_545  S
C1684      C1685   1.403       .  A
C1685      C1686   1.404       .  A
C1685      H1690   1.083       .  S
C1686      C1687   1.408       .  A
C1686      H1691   1.081       .  S
C1687      C1688   1.403       .  A
C1688      H1692   1.084       .  S
C1693      C1694   1.409   1_545  A
C1693      C1698   1.401       .  A
C1693      H1699   1.083       .  S
C1694      C1695   1.401       .  A
C1695      C1696   1.398       .  A
C1695      H1700   1.083       .  S
C1696      C1697   1.410   1_565  A
C1696      H1701   1.083       .  S
C1697      C1698   1.404       .  A
C1698      H1702   1.083       .  S
C1703      C1704   1.405   1_655  A
C1703      C1708   1.401       .  A
C1703      H1709   1.084       .  S
C1704      C1705   1.406       .  A
C1705      C1706   1.401       .  A
C1705      H1710   1.083       .  S
C1706      C1707   1.404   1_455  A
C1706      H1711   1.084       .  S
C1707      C1708   1.405       .  A
C1708      H1712   1.083       .  S
C1713      C1714   1.409       .  A
C1713      C1718   1.392       .  A
C1713      H1719   1.083       .  S
C1714      C1715   1.409       .  A
C1715      C1716   1.415       .  A
C1715      H1720   1.083       .  S
C1716      C1717   1.410       .  A
C1716      H1721   1.083       .  S
C1717      C1718   1.399       .  A
C1718      H1722   1.084       .  S
C1723      C1724   1.408       .  A
C1723      C1728   1.401       .  A
C1723      H1729   1.083       .  S
C1724      C1725   1.402       .  A
C1725      C1726   1.391       .  A
C1725      H1730   1.083       .  S
C1726      C1727   1.406       .  A
C1726      H1731   1.083       .  S
C1727      C1728   1.405       .  A
C1728      H1732   1.083       .  S
C1733      C1734   1.403       .  A
C1733      C1738   1.399       .  A
C1733      H1739   1.083       .  S
C1734      C1735   1.409       .  A
C1735      C1736   1.401       .  A
C1735      H1740   1.083       .  S
C1736      C1737   1.404       .  A
C1736      H1741   1.083       .  S
C1737      C1738   1.409       .  A
C1738      H1742   1.083       .  S
C1743      C1744   1.404       .  A
C1743      C1748   1.401       .  A
C1743      H1749   1.084       .  S
C1744      C1745   1.406       .  A
C1745      C1746   1.402       .  A
C1745      H1750   1.083       .  S
C1746      C1747   1.405       .  A
C1746      H1751   1.084       .  S
C1747      C1748   1.406       .  A
C1748      H1752   1.083       .  S
C1753      C1754   1.410       .  A
C1753      C1758   1.399       .  A
C1753      H1759   1.083       .  S
C1754      C1755   1.404       .  A
C1755      C1756   1.401       .  A
C1755      H1760   1.083       .  S
C1756      C1757   1.409       .  A
C1756      H1761   1.084       .  S
C1757      C1758   1.401       .  A
C1758      H1762   1.083       .  S
C1763      C1764   1.397       .  A
C1763      C1768   1.398       .  A
C1763      H1769   1.083       .  S
C1764      C1765   1.410   1_565  A
C1765      C1766   1.406       .  A
C1765      H1770   1.082       .  S
C1766      C1767   1.403       .  A
C1766      H1771   1.083       .  S
C1767      C1768   1.413   1_545  A
C1768      H1772   1.082       .  S
C1773      C1774   1.407       .  A
C1773      C1778   1.402       .  A
C1773      H1779   1.083       .  S
C1774      C1775   1.403       .  A
C1775      C1776   1.392       .  A
C1775      H1780   1.084       .  S
C1776      C1777   1.404       .  A
C1776      H1781   1.084       .  S
C1777      C1778   1.402       .  A
C1778      H1782   1.083       .  S
C1783      C1784   1.407       .  A
C1783      C1788   1.401       .  A
C1783      H1789   1.081       .  S
C1784      C1785   1.403       .  A
C1785      C1786   1.391       .  A
C1785      H1790   1.084       .  S
C1786      C1787   1.404       .  A
C1786      H1791   1.084       .  S
C1787      C1788   1.401       .  A
C1788      H1792   1.083       .  S
C1793      C1794   1.405   1_545  A
C1793      C1798   1.401       .  A
C1793      H1799   1.083       .  S
C1794      C1795   1.406       .  A
C1795      C1796   1.401       .  A
C1795      H1800   1.084       .  S
C1796      C1797   1.404   1_565  A
C1796      H1801   1.084       .  S
C1797      C1798   1.405       .  A
C1798      H1802   1.083       .  S
C1803      C1804   1.401       .  A
C1803      C1808   1.397       .  A
C1803      H1809   1.083       .  S
C1804      C1805   1.408       .  A
C1805      C1806   1.400       .  A
C1805      H1810   1.084       .  S
C1806      C1807   1.404       .  A
C1806      H1811   1.083       .  S
C1807      C1808   1.410       .  A
C1808      H1812   1.083       .  S
C1813      C1814   1.412       .  A
C1813      C1818   1.416       .  A
C1813      H1819   1.083       .  S
C1814      C1815   1.397       .  A
C1815      C1816   1.391       .  A
C1815      H1820   1.084       .  S
C1816      C1817   1.410       .  A
C1816      H1821   1.083       .  S
C1817      C1818   1.408       .  A
C1818      H1822   1.083       .  S
C1823      C1824   1.404       .  A
C1823      C1828   1.402       .  A
C1823      H1829   1.083       .  S
C1824      C1825   1.409       .  A
C1825      C1826   1.399       .  A
C1825      H1830   1.083       .  S
C1826      C1827   1.403       .  A
C1826      H1831   1.083       .  S
C1827      C1828   1.409       .  A
C1828      H1832   1.083       .  S
C1833      C1834   1.407       .  A
C1833      C1838   1.398       .  A
C1833      H1839   1.083       .  S
C1834      C1835   1.402       .  A
C1835      C1836   1.392       .  A
C1835      H1840   1.083       .  S
C1836      C1837   1.407       .  A
C1836      H1841   1.083       .  S
C1837      C1838   1.404       .  A
C1838      H1842   1.083       .  S
C1843      C1844   1.404       .  A
C1843      C1848   1.394       .  A
C1843      H1849   1.083       .  S
C1844      C1845   1.408       .  A
C1845      C1846   1.398       .  A
C1845      H1850   1.083       .  S
C1846      C1847   1.404       .  A
C1846      H1851   1.083       .  S
C1847      C1848   1.407       .  A
C1848      H1852   1.083       .  S
C1853      C1854   1.406       .  A
C1853      C1858   1.401       .  A
C1853      H1859   1.083       .  S
C1854      C1855   1.404       .  A
C1855      C1856   1.402       .  A
C1855      H1860   1.084       .  S
C1856      C1857   1.406       .  A
C1856      H1861   1.083       .  S
C1857      C1858   1.405       .  A
C1858      H1862   1.084       .  S
C1863      C1864   1.404       .  A
C1863      C1868   1.400       .  A
C1863      H1869   1.083       .  S
C1864      C1865   1.409       .  A
C1865      C1866   1.397       .  A
C1865      H1870   1.083       .  S
C1866      C1867   1.402       .  A
C1866      H1871   1.083       .  S
C1867      C1868   1.408       .  A
C1868      H1872   1.084       .  S
