geometry optimzed in LAMMPS
_audit_creation_date              2020-12-01 
_audit_creation_method            'lammps2cif' 
_symmetry_space_group_name_H-M    'P1' 
_symmetry_Int_Tables_number       1 
_symmetry_cell_setting            triclinic 
loop_ 
_symmetry_equiv_pos_as_xyz 
  x,y,z 
_cell_length_a                    49.2486229 
_cell_length_b                    49.145218793531996 
_cell_length_c                    37.98941757795587 
_cell_angle_alpha                 90.73850025924403 
_cell_angle_beta                  91.02287335250502 
_cell_angle_gamma                 90.02271900218355 
loop_ 
_atom_site_label 
_atom_site_type_symbol 
_atom_site_fract_x 
_atom_site_fract_y 
_atom_site_fract_z 
_atom_site_charge 
O1          O  0.03012220  0.49325587  0.72130594    -0.82500
C2          C  0.06616517  0.06879800  0.63506226     0.96800
O3          O  0.07628279  0.04760292  0.64878477    -0.71700
O4          O  0.08049244  0.01041795  0.69854295    -0.75300
Al5        Al  0.05764255  0.01475934  0.65805518     1.49000
C6          C  0.08208268  0.02339067  0.72722077     0.92100
O7          O  0.01642877  0.06503818  0.73674774    -0.81500
O8          O  0.47453854  0.04640033  0.67340108    -0.75000
Al9        Al  0.02569945  0.02826804  0.72481794     1.90100
O10         O  0.01441039  0.08507297  0.68581968    -0.74100
O11         O  0.00215921  0.03017696  0.61701912    -0.74000
O12         O  0.04065583  0.07120146  0.63014630    -0.79600
O13         O  0.04126592  0.51703143  0.61095210    -0.77800
O14         O  0.03088770  0.03312328  0.67896390    -1.13900
O15         O  0.03758547  0.48395282  0.66531246    -0.73100
C16         C  0.02992808  0.47662987  0.69546984     0.97600
C17         C  0.01441873  0.08630730  0.71883525     0.94000
Al18       Al  0.01011560  0.05572136  0.65393863     1.55600
O19         O  0.06231964  0.03731322  0.73777231    -0.77800
C20         C  0.01946984  0.01755989  0.59924675     0.98100
C21         C  0.46974823  0.03169302  0.69967708     0.93000
O22         O  0.48853015  0.02513576  0.72074902    -0.83100
O23         O  0.21659822  0.26241543  0.72343115    -0.82500
C24         C  0.18200442  0.18054607  0.63695651     0.96800
O25         O  0.17203698  0.20204156  0.65031133    -0.71700
O26         O  0.16856326  0.24055046  0.69942102    -0.75300
Al27       Al  0.19069858  0.23528618  0.65928955     1.49000
C28         C  0.16772805  0.22843712  0.72832700     0.92100
O29         O  0.23395400  0.18804043  0.73953757    -0.81500
O30         O  0.27239142  0.20642253  0.67720015    -0.75000
Al31       Al  0.22420680  0.22436394  0.72669986     1.90100
O32         O  0.23437520  0.16616396  0.68915461    -0.74100
O33         O  0.24560003  0.21904364  0.61971630    -0.74000
O34         O  0.20743367  0.17816395  0.63253137    -0.79600
O35         O  0.20472352  0.23495258  0.61320584    -0.77800
O36         O  0.21793708  0.21779884  0.68095610    -1.13900
O37         O  0.20825352  0.26964576  0.66709932    -0.73100
C38         C  0.21639428  0.27807985  0.69715085     0.97600
C39         C  0.23514145  0.16609757  0.72220921     0.94000
Al40       Al  0.23826673  0.19444175  0.65672594     1.55600
O41         O  0.18801717  0.21546151  0.73966428    -0.77800
C42         C  0.22806902  0.23124309  0.60140835     0.98100
C43         C  0.27832539  0.22430443  0.70034652     0.93000
O44         O  0.26037284  0.23419901  0.71981829    -0.83100
O45         O  0.24474874  0.26888482  0.28666853    -0.82500
C46         C  0.32156725  0.31944859  0.37232725     0.96800
O47         O  0.29629122  0.32037245  0.37856632    -0.71700
O48         O  0.26799939  0.33314793  0.32358824    -0.75300
Al49       Al  0.26580272  0.30382786  0.35426052     1.49000
C50         C  0.26970980  0.33524779  0.29081279     0.92100
O51         O  0.31780040  0.28548301  0.27025409    -0.81500
O52         O  0.29682675  0.23038753  0.34065309    -0.75000
Al53       Al  0.28138816  0.27740338  0.28228656     1.90100
O54         O  0.33674383  0.25987493  0.30999760    -0.74100
O55         O  0.30106850  0.26408700  0.39622560    -0.74000
O56         O  0.33240873  0.29829252  0.35907294    -0.79600
O57         O  0.25955104  0.27790877  0.38994687    -0.77800
O58         O  0.28690064  0.28218254  0.32857094    -1.13900
O59         O  0.23223238  0.29147577  0.33370112    -0.73100
C60         C  0.22658035  0.27654207  0.30732117     0.97600
C61         C  0.33806820  0.27279970  0.28184977     0.94000
Al62       Al  0.31437614  0.26463230  0.34969449     1.55600
O63         O  0.27355076  0.31454837  0.27168680    -0.77800
C64         C  0.27770487  0.26674392  0.40827572     0.98100
C65         C  0.28773099  0.22282938  0.31054904     0.93000
O66         O  0.28745501  0.23895266  0.28463037    -0.83100
O67         O  0.01119699  0.49076776  0.28663498    -0.82500
C68         C  0.43039569  0.43858535  0.36661483     0.96800
O69         O  0.45560824  0.43695998  0.37355690    -0.71700
O70         O  0.48013226  0.42087203  0.31716989    -0.75300
Al71       Al  0.48638989  0.45021844  0.34895242     1.49000
C72         C  0.48332095  0.42032292  0.28441326     0.92100
O73         O  0.43823588  0.47013427  0.26256303    -0.81500
O74         O  0.45894547  0.02506485  0.33196497    -0.75000
Al75       Al  0.47450556  0.47885816  0.27817839     1.90100
O76         O  0.41864136  0.49667768  0.30113269    -0.74100
O77         O  0.45431819  0.49298582  0.38976122    -0.74000
O78         O  0.42060730  0.45927886  0.35124523    -0.79600
O79         O  0.99287068  0.47722891  0.38161374    -0.77800
O80         O  0.46720501  0.47364504  0.32331231    -1.13900
O81         O  0.02044561  0.46023114  0.32648102    -0.73100
C82         C  0.02812211  0.47798183  0.30511456     0.97600
C83         C  0.41810857  0.48408541  0.27207349     0.94000
Al84       Al  0.44013102  0.49221409  0.34290757     1.55600
O85         O  0.48419252  0.44200372  0.26713146    -0.77800
C86         C  0.47771174  0.48915537  0.40256021     0.98100
C87         C  0.46921792  0.03286624  0.30342746     0.93000
O88         O  0.47122008  0.01685915  0.27709704    -0.83100
O89         O  0.46449309  0.24593666  0.78281197    -0.82500
C90         C  0.43199223  0.32396849  0.87468106     0.96800
O91         O  0.42270749  0.30202247  0.86142117    -0.71700
O92         O  0.41819014  0.26583060  0.81004909    -0.75300
Al93       Al  0.44258565  0.27016669  0.84977575     1.49000
C94         C  0.41573251  0.27903549  0.78184799     0.92100
O95         O  0.48106006  0.32054522  0.76961896    -0.81500
O96         O  0.02331124  0.30232637  0.82161379    -0.75000
Al97       Al  0.47189297  0.28395426  0.78146751     1.90100
O98         O  0.47890079  0.34206811  0.82002778    -0.74100
O99         O  0.49903082  0.28959035  0.88574303    -0.74000
O100        O  0.45745786  0.32773322  0.87799701    -0.79600
O101        O  0.46023762  0.27007327  0.89534874    -0.77800
O102        O  0.46744183  0.28953637  0.82744192    -1.13900
O103        O  0.46113256  0.23675609  0.83905920    -0.73100
C104        C  0.46688946  0.22941433  0.80794734     0.97600
C105        C  0.48034684  0.34240728  0.78717096     0.94000
Al106      Al  0.48749963  0.31395733  0.85086191     1.55600
O107        O  0.43523494  0.29266240  0.77028490    -0.77800
C108        C  0.48394068  0.27637609  0.90552696     0.98100
C109        C  0.02923077  0.28341785  0.80018500     0.93000
O110        O  0.01097899  0.27113693  0.78268555    -0.83100
O111        O  0.28382257  0.01450757  0.78709157    -0.82500
C112        C  0.31373463  0.43351459  0.87207662     0.96800
O113        O  0.32360249  0.45554338  0.86102631    -0.71700
O114        O  0.32931209  0.49306355  0.81333610    -0.75300
Al115      Al  0.30405117  0.48796751  0.85011849     1.49000
C116        C  0.33257579  0.48111560  0.78414503     0.92100
O117        O  0.26789539  0.43895489  0.76335702    -0.81500
O118        O  0.22643723  0.45268802  0.81898354    -0.75000
Al119      Al  0.27573931  0.47598670  0.77841645     1.90100
O120        O  0.26913240  0.41683748  0.81288553    -0.74100
O121        O  0.24648351  0.46816797  0.87997614    -0.74000
O122        O  0.28825163  0.43038331  0.87385701    -0.79600
O123        O  0.28763516  0.98586976  0.89635300    -0.77800
O124        O  0.27959714  0.46929481  0.82433532    -1.13900
O125        O  0.28827707  0.02145472  0.84410394    -0.73100
C126        C  0.28219109  0.03003883  0.81367602     0.97600
C127        C  0.26848408  0.41682611  0.77988185     0.94000
Al128      Al  0.25927161  0.44421459  0.84464384     1.55600
O129        O  0.31307524  0.46886203  0.76884321    -0.77800
C130        C  0.26129298  0.48106720  0.90166418     0.98100
C131        C  0.22043764  0.47156759  0.79794533     0.93000
O132        O  0.23865119  0.48455326  0.78256302    -0.83100
O133        O  0.48924737  0.22007100  0.22440414    -0.82500
C134        C  0.06698875  0.18196640  0.13418675     0.96800
O135        O  0.04548410  0.17311598  0.14781490    -0.71700
O136        O  0.00986770  0.17092041  0.19813437    -0.75300
Al137      Al  0.01352818  0.19293325  0.15770408     1.49000
C138        C  0.02340891  0.16972253  0.22642051     0.92100
O139        O  0.06583514  0.23442198  0.23509286    -0.81500
O140        O  0.04629471  0.27401981  0.17271023    -0.75000
Al141      Al  0.02877711  0.22655279  0.22408605     1.90100
O142        O  0.08532795  0.23419882  0.18391612    -0.74100
O143        O  0.03056083  0.24687226  0.11612322    -0.74000
O144        O  0.07017955  0.20722311  0.12870333    -0.79600
O145        O  0.51198543  0.20725962  0.11397696    -0.77800
O146        O  0.03293277  0.21972611  0.17814896    -1.13900
O147        O  0.47980901  0.21150182  0.16843871    -0.73100
C148        C  0.47271869  0.22007432  0.19845943     0.97600
C149        C  0.08687039  0.23468395  0.21686214     0.94000
Al150      Al  0.05603975  0.23897136  0.15259386     1.55600
O151        O  0.03648111  0.19008353  0.23778556    -0.77800
C152        C  0.01682800  0.22977890  0.09860029     0.98100
C153        C  0.03021676  0.28083327  0.19695008     0.93000
O154        O  0.02061073  0.26321184  0.21696575    -0.83100
O155        O  0.26421773  0.02167941  0.21652224    -0.82500
C156        C  0.17592349  0.06288400  0.13955600     0.96800
O157        O  0.20011340  0.07132264  0.13635954    -0.71700
O158        O  0.22386257  0.08685127  0.19395830    -0.75300
Al159      Al  0.23369686  0.06095314  0.15976293     1.49000
C160        C  0.22966414  0.08686360  0.22618347     0.92100
O161        O  0.19134028  0.03263531  0.24121340    -0.81500
O162        O  0.21656231  0.47832246  0.16719549    -0.75000
Al163      Al  0.22782495  0.02750076  0.22722315     1.90100
O164        O  0.17430280  0.00411562  0.20142587    -0.74100
O165        O  0.21069392  0.01279315  0.11414295    -0.74000
O166        O  0.17125284  0.03939644  0.15100210    -0.79600
O167        O  0.24557326  0.03965159  0.12167421    -0.77800
O168        O  0.21913987  0.03321211  0.18221060    -1.13900
O169        O  0.27003429  0.05537209  0.17965342    -0.73100
C170        C  0.27955012  0.03620521  0.19837006     0.97600
C171        C  0.17206128  0.01797496  0.22953772     0.94000
Al172      Al  0.19556591  0.01083588  0.16038685     1.55600
O173        O  0.23485970  0.06476822  0.24129089    -0.77800
C174        C  0.23218872  0.02319268  0.10276986     0.98100
C175        C  0.22302262  0.47143073  0.19818105     0.93000
O176        O  0.21976557  0.48793023  0.22351796    -0.83100
C177        C  0.15254565  0.08103839  0.13184398    -0.06000
C178        C  0.12589574  0.07110055  0.13502219    -0.05900
C179        C  0.10365251  0.08864166  0.13326961    -0.24100
C180        C  0.10754897  0.11655443  0.12843620     0.18100
C181        C  0.13408542  0.12672920  0.12378919     0.15400
C182        C  0.15642700  0.10889541  0.12531758    -0.19100
C183        C  0.13787522  0.15473660  0.11917560    -0.20900
C184        C  0.11576424  0.17257164  0.12059491    -0.13500
C185        C  0.08942787  0.16275604  0.12662586     0.03200
C186        C  0.08544287  0.13455331  0.12967921    -0.25600
H187        H  0.12221658  0.04979021  0.14009907     0.08300
H188        H  0.08345533  0.08047625  0.13680057     0.11900
H189        H  0.17682144  0.11691263  0.12307503     0.11800
H190        H  0.15803888  0.16295430  0.11557548     0.11500
H191        H  0.11949582  0.19420363  0.11847606     0.12100
H192        H  0.06529572  0.12666916  0.13445401     0.14000
C193        C  0.25105916  0.48793753  0.93709608    -0.06000
C194        C  0.22860303  0.97466066  0.95088257    -0.05900
C195        C  0.21947073  0.97964614  0.98502966    -0.24100
C196        C  0.23482062  0.99584719  0.00862685     0.18100
C197        C  0.25939948  0.50524164  0.99679087     0.15400
C198        C  0.26823789  0.50058207  0.96234544    -0.19100
C199        C  0.27662624  0.51765615  0.02196072    -0.20900
C200        C  0.26768148  0.52239812  0.05614511    -0.13500
C201        C  0.24160951  0.01694274  0.06669668     0.03200
C202        C  0.22608298  0.00060281  0.04323407    -0.25600
H203        H  0.21654685  0.96168807  0.93345075     0.08300
H204        H  0.20052512  0.97060303  0.99307967     0.11900
H205        H  0.28866186  0.50644583  0.95539378     0.11800
H206        H  0.29696517  0.52387407  0.01515292     0.11500
H207        H  0.28133663  0.53231026  0.07494090     0.12100
H208        H  0.20716039  0.99177010  0.05176261     0.14000
C209        C  0.49378003  0.26970393  0.94142545    -0.06000
C210        C  0.01831822  0.28319320  0.95193866    -0.05900
C211        C  0.02637379  0.27883570  0.98685624    -0.24100
C212        C  0.01259363  0.25991218  0.00726070     0.18100
C213        C  0.48754283  0.24784855  0.99798710     0.15400
C214        C  0.47873992  0.25265423  0.96322768    -0.19100
C215        C  0.47296845  0.23042021  0.01963209    -0.20900
C216        C  0.48226807  0.22525027  0.05385337    -0.13500
C217        C  0.00721180  0.23589489  0.06247617     0.03200
C218        C  0.02050224  0.25552375  0.04244033    -0.25600
H219        H  0.02908285  0.29824752  0.93696556     0.08300
H220        H  0.04330210  0.29035879  0.99793751     0.11900
H221        H  0.46022809  0.24317353  0.95320963     0.11800
H222        H  0.45462662  0.22046105  0.00992860     0.11500
H223        H  0.47096242  0.21128621  0.06986324     0.12100
H224        H  0.03742200  0.26686330  0.05391677     0.14000
C225        C  0.41297983  0.34629902  0.88419559    -0.06000
C226        C  0.42298950  0.37259058  0.89185197    -0.05900
C227        C  0.40535274  0.39485314  0.89411516    -0.24100
C228        C  0.37731642  0.39130209  0.88883158     0.18100
C229        C  0.36684963  0.36474061  0.88345947     0.15400
C230        C  0.38468745  0.34245175  0.88122819    -0.19100
C231        C  0.33880494  0.36107193  0.87866377    -0.20900
C232        C  0.32145958  0.38354402  0.87736649    -0.13500
C233        C  0.33178163  0.41019962  0.88044979     0.03200
C234        C  0.35974833  0.41389590  0.88711410    -0.25600
H235        H  0.44462947  0.37623047  0.89433434     0.08300
H236        H  0.41376377  0.41499822  0.89864892     0.11900
H237        H  0.37658746  0.32233356  0.87545947     0.11800
H238        H  0.33036810  0.34087228  0.87467446     0.11500
H239        H  0.30005552  0.38006120  0.87199921     0.12100
H240        H  0.36795411  0.43431772  0.88959702     0.14000
C241        C  0.02330848  0.14390267  0.24525716    -0.06000
C242        C  0.53603931  0.12175902  0.23379505    -0.05900
C243        C  0.53030656  0.09554015  0.24500842    -0.24100
C244        C  0.51001691  0.09139730  0.26978596     0.18100
C245        C  0.99871503  0.11370661  0.28387144     0.15400
C246        C  0.00567885  0.14017047  0.27348440    -0.19100
C247        C  0.97935888  0.10938571  0.31000128    -0.20900
C248        C  0.97027895  0.08298135  0.31710921    -0.13500
C249        C  0.47969013  0.06071888  0.29990526     0.03200
C250        C  0.50136123  0.06506215  0.27713374    -0.25600
H251        H  0.55019055  0.12452347  0.21259881     0.08300
H252        H  0.54054052  0.07844045  0.23278852     0.11900
H253        H  0.99571732  0.15765301  0.28521128     0.11800
H254        H  0.97061578  0.12646341  0.32409877     0.11500
H255        H  0.95475181  0.08013267  0.33655225     0.12100
H256        H  0.51083151  0.04790123  0.26401290     0.14000
C257        C  0.48675176  0.39394189  0.26645826    -0.06000
C258        C  0.46767316  0.37323812  0.27128915    -0.05900
C259        C  0.47168858  0.34743758  0.25654508    -0.24100
C260        C  0.49530609  0.34176899  0.23769384     0.18100
C261        C  0.00974886  0.36406362  0.22241827     0.15400
C262        C  0.00460640  0.39086661  0.23440803    -0.19100
C263        C  0.02931251  0.35851845  0.19672932    -0.20900
C264        C  0.03564749  0.33150719  0.18732129    -0.13500
C265        C  0.02239350  0.30966509  0.20332264     0.03200
C266        C  0.50029384  0.31538882  0.22513891    -0.25600
H267        H  0.44972055  0.37705010  0.28668213     0.08300
H268        H  0.45670106  0.33170914  0.26072078     0.11900
H269        H  0.01587631  0.40777657  0.22386784     0.11800
H270        H  0.04022816  0.37500499  0.18465830     0.11500
H271        H  0.05137533  0.32770975  0.16832076     0.12100
H272        H  0.48546294  0.29957519  0.22965572     0.14000
C273        C  0.14646358  0.01673474  0.24826116    -0.06000
C274        C  0.12704888  0.53883795  0.24808291    -0.05900
C275        C  0.10133626  0.53643817  0.26267440    -0.24100
C276        C  0.09260005  0.51128790  0.27545643     0.18100
C277        C  0.11329218  0.98993442  0.27931015     0.15400
C278        C  0.13956907  0.99311453  0.26634400    -0.19100
C279        C  0.10587727  0.96603963  0.29653540    -0.20900
C280        C  0.07901264  0.96204632  0.30657972    -0.13500
C281        C  0.05719448  0.48267002  0.29935333     0.03200
C282        C  0.06611450  0.50809792  0.28759499    -0.25600
H283        H  0.13326873  0.55814836  0.23735981     0.08300
H284        H  0.08810797  0.55401301  0.26322462     0.11900
H285        H  0.15436224  0.97690283  0.26914954     0.11800
H286        H  0.12065341  0.95010570  0.30126132     0.11500
H287        H  0.07345207  0.94297690  0.31848479     0.12100
H288        H  0.05217537  0.52506560  0.28664342     0.14000
C289        C  0.39399988  0.48739412  0.24924820    -0.06000
C290        C  0.37877140  0.96641157  0.23733343    -0.05900
C291        C  0.35262576  0.97124570  0.22389697    -0.24100
C292        C  0.34458796  0.99775622  0.21508624     0.18100
C293        C  0.36363007  0.01924392  0.21719150     0.15400
C294        C  0.38612477  0.51380123  0.23970087    -0.19100
C295        C  0.35552107  0.04570362  0.20807011    -0.20900
C296        C  0.32828918  0.05118841  0.19950787    -0.13500
C297        C  0.30890822  0.03030402  0.20020449     0.03200
C298        C  0.31741791  0.00343993  0.20653360    -0.25600
H299        H  0.38402042  0.94625627  0.24644531     0.08300
H300        H  0.33825425  0.95455394  0.22222540     0.11900
H301        H  0.39956700  0.53079760  0.24570107     0.11800
H302        H  0.36995922  0.06234640  0.20914601     0.11500
H303        H  0.32212135  0.07194637  0.19445281     0.12100
H304        H  0.30257021  0.98712169  0.20652790     0.14000
C305        C  0.41303178  0.41500387  0.37511261    -0.06000
C306        C  0.42536856  0.38993720  0.38325313    -0.05900
C307        C  0.40988348  0.36635659  0.38641229    -0.24100
C308        C  0.38165915  0.36734990  0.38201920     0.18100
C309        C  0.36882246  0.39268876  0.37595964     0.15400
C310        C  0.38458814  0.41632201  0.37217110    -0.19100
C311        C  0.34048093  0.39376704  0.37287139    -0.20900
C312        C  0.32515435  0.36991878  0.37441952    -0.13500
C313        C  0.33785467  0.34444000  0.37792620     0.03200
C314        C  0.36615700  0.34333647  0.38241656    -0.25600
H315        H  0.44723873  0.38823503  0.38570480     0.08300
H316        H  0.42007366  0.34721908  0.39147080     0.11900
H317        H  0.37479841  0.43550390  0.36611667     0.11800
H318        H  0.33018443  0.41296640  0.36860482     0.11500
H319        H  0.30334919  0.37127517  0.37124151     0.12100
H320        H  0.37612416  0.32379941  0.38534149     0.14000
C321        C  0.23424342  0.44430620  0.20644559    -0.06000
C322        C  0.23365183  0.42234675  0.18237763    -0.05900
C323        C  0.24262214  0.39647443  0.19288223    -0.24100
C324        C  0.25208393  0.39231282  0.22759004     0.18100
C325        C  0.25370391  0.41475374  0.25113895     0.15400
C326        C  0.24523701  0.44037402  0.24032317    -0.19100
C327        C  0.26266134  0.41121394  0.28583526    -0.20900
C328        C  0.26867981  0.38537900  0.29791007    -0.13500
C329        C  0.26641509  0.36253276  0.27544257     0.03200
C330        C  0.25888845  0.36616889  0.23981216    -0.25600
H331        H  0.22562680  0.42500193  0.15592609     0.08300
H332        H  0.24139824  0.37961717  0.17425997     0.11900
H333        H  0.24646125  0.45722378  0.25901578     0.11800
H334        H  0.26404159  0.42832571  0.30408438     0.11500
H335        H  0.27439374  0.38325204  0.32531834     0.12100
H336        H  0.25697271  0.34867282  0.22227778     0.14000
C337        C  0.27630157  0.19528892  0.30458291    -0.06000
C338        C  0.28500291  0.17267838  0.32395301    -0.05900
C339        C  0.27530449  0.14653730  0.31510870    -0.24100
C340        C  0.25660927  0.14279763  0.28700374     0.18100
C341        C  0.24642769  0.16581323  0.26921843     0.15400
C342        C  0.25626894  0.19172659  0.27811781    -0.19100
C343        C  0.22757041  0.16254186  0.24149497    -0.20900
C344        C  0.22060377  0.13656872  0.22937121    -0.13500
C345        C  0.23214523  0.11337353  0.24490570     0.03200
C346        C  0.24911794  0.11655023  0.27495697    -0.25600
H347        H  0.30003791  0.17507215  0.34491925     0.08300
H348        H  0.28308918  0.12920918  0.32941732     0.11900
H349        H  0.24887056  0.20913982  0.26361377     0.11800
H350        H  0.21925619  0.18005393  0.22803606     0.11500
H351        H  0.20715916  0.13466926  0.20657105     0.12100
H352        H  0.25806253  0.09881125  0.28719863     0.14000
C353        C  0.36371941  0.27232209  0.26313491    -0.06000
C354        C  0.38662093  0.28405621  0.27959745    -0.05900
C355        C  0.41251643  0.27803867  0.26761476    -0.24100
C356        C  0.41579507  0.25959413  0.23959339     0.18100
C357        C  0.39277695  0.24874948  0.22157760     0.15400
C358        C  0.36668791  0.25548686  0.23330747    -0.19100
C359        C  0.39640135  0.23011016  0.19367017    -0.20900
C360        C  0.42252964  0.22127040  0.18495225    -0.13500
C361        C  0.44522098  0.23081923  0.20426820     0.03200
C362        C  0.44171637  0.25062503  0.23075056    -0.25600
H363        H  0.38447810  0.29675971  0.30291631     0.08300
H364        H  0.43000568  0.28659488  0.28150868     0.11900
H365        H  0.34892086  0.24601240  0.22112551     0.11800
H366        H  0.37902074  0.22171448  0.17940227     0.11500
H367        H  0.42491738  0.20622963  0.16415685     0.12100
H368        H  0.45921522  0.25844271  0.24538190     0.14000
C369        C  0.11383669  0.23608961  0.23377361    -0.06000
C370        C  0.13588091  0.22351904  0.21726287    -0.05900
C371        C  0.16215208  0.22715621  0.23055697    -0.24100
C372        C  0.16678429  0.24398794  0.26006712     0.18100
C373        C  0.14469256  0.25614992  0.27753238     0.15400
C374        C  0.11817280  0.25169846  0.26459188    -0.19100
C375        C  0.14967091  0.27347223  0.30661727    -0.20900
C376        C  0.17635843  0.27955896  0.31732011    -0.13500
C377        C  0.19835017  0.26820508  0.29925469     0.03200
C378        C  0.19329765  0.24979384  0.27129472    -0.25600
H379        H  0.13278981  0.21123654  0.19362364     0.08300
H380        H  0.17890799  0.21762507  0.21702027     0.11900
H381        H  0.10116588  0.26157787  0.27719294     0.11800
H382        H  0.13299240  0.28295301  0.32034604     0.11500
H383        H  0.17977510  0.29373619  0.33901251     0.12100
H384        H  0.21003187  0.24075612  0.25718500     0.14000
C385        C  0.23413845  0.24077073  0.56558302    -0.06000
C386        C  0.21459493  0.25596270  0.54681016    -0.05900
C387        C  0.21917175  0.26393003  0.51232079    -0.24100
C388        C  0.24336580  0.25683550  0.49579380     0.18100
C389        C  0.26336861  0.24189519  0.51448658     0.15400
C390        C  0.25867634  0.23402017  0.54929479    -0.19100
C391        C  0.28761876  0.23493801  0.49791062    -0.20900
C392        C  0.29202667  0.24271639  0.46323900    -0.13500
C393        C  0.27222736  0.25751773  0.44438593     0.03200
C394        C  0.24786703  0.26445413  0.46090122    -0.25600
H395        H  0.19553413  0.26153728  0.55870056     0.08300
H396        H  0.20366589  0.27547475  0.49848086     0.11900
H397        H  0.27389698  0.22229804  0.56343188     0.11800
H398        H  0.30321193  0.22352643  0.51177158     0.11500
H399        H  0.31104571  0.23719665  0.45119685     0.12100
H400        H  0.23254575  0.27606903  0.44678904     0.14000
C401        C  0.05780156  0.27553933  0.79484746    -0.06000
C402        C  0.07893269  0.29422638  0.80123100    -0.05900
C403        C  0.10560775  0.28755400  0.79254945    -0.24100
C404        C  0.11153626  0.26201083  0.77764411     0.18100
C405        C  0.09063206  0.24250503  0.77299366     0.15400
C406        C  0.06393219  0.24940799  0.78164401    -0.19100
C407        C  0.09656985  0.21691563  0.75814232    -0.20900
C408        C  0.12264165  0.21133938  0.74595852    -0.13500
C409        C  0.14304129  0.23113898  0.74891552     0.03200
C410        C  0.13765264  0.25614779  0.76556609    -0.25600
H411        H  0.07466392  0.31437029  0.81161735     0.08300
H412        H  0.12145040  0.30265141  0.79649827     0.11900
H413        H  0.04779693  0.23468048  0.77720474     0.11800
H414        H  0.08077687  0.20172137  0.75448389     0.11500
H415        H  0.12649165  0.19220952  0.73246339     0.12100
H416        H  0.15339466  0.27158647  0.76717831     0.14000
C417        C  0.39017825  0.27696344  0.76188735    -0.06000
C418        C  0.36844788  0.29397424  0.77055256    -0.05900
C419        C  0.34246183  0.28846905  0.75700521    -0.24100
C420        C  0.33791671  0.26553489  0.73529017     0.18100
C421        C  0.36001227  0.24904532  0.72511823     0.15400
C422        C  0.38614705  0.25505289  0.73833016    -0.19100
C423        C  0.35527636  0.22598931  0.70365147    -0.20900
C424        C  0.32871692  0.21840715  0.69409189    -0.13500
C425        C  0.30658105  0.23382978  0.70584308     0.03200
C426        C  0.31148564  0.25793719  0.72532279    -0.25600
H427        H  0.37139175  0.31072309  0.78905433     0.08300
H428        H  0.32571764  0.30135028  0.76489498     0.11900
H429        H  0.40303126  0.24175508  0.73212892     0.11800
H430        H  0.37202101  0.21324517  0.69540529     0.11500
H431        H  0.32543909  0.19990999  0.67881472     0.12100
H432        H  0.29460625  0.27026919  0.73408038     0.14000
C433        C  0.23763798  0.13974525  0.74018091    -0.06000
C434        C  0.22610286  0.11658112  0.72392404    -0.05900
C435        C  0.23059109  0.09086998  0.73772687    -0.24100
C436        C  0.24722631  0.08776725  0.76764607     0.18100
C437        C  0.25825244  0.11085613  0.78523713     0.15400
C438        C  0.25300437  0.13694516  0.77161968    -0.19100
C439        C  0.27522279  0.10714843  0.81505783    -0.20900
C440        C  0.28226608  0.08079845  0.82604857    -0.13500
C441        C  0.27235536  0.05797268  0.80731506     0.03200
C442        C  0.25405639  0.06173964  0.77902975    -0.25600
H443        H  0.21396665  0.11834450  0.69998511     0.08300
H444        H  0.22186948  0.07329209  0.72419973     0.11900
H445        H  0.26204187  0.15476264  0.78421530     0.11800
H446        H  0.28379802  0.12456502  0.82905417     0.11500
H447        H  0.29633267  0.07829303  0.84799841     0.12100
H448        H  0.24596675  0.04419828  0.76472025     0.14000
C449        C  0.22662313  0.30608746  0.70277453    -0.06000
C450        C  0.21772574  0.32807661  0.68234321    -0.05900
C451        C  0.22633684  0.35466318  0.69088498    -0.24100
C452        C  0.24418121  0.35945852  0.71966066     0.18100
C453        C  0.25439623  0.33705126  0.73872771     0.15400
C454        C  0.24555353  0.31076574  0.73022403    -0.19100
C455        C  0.27230386  0.34126684  0.76723723    -0.20900
C456        C  0.27849028  0.36756010  0.77863620    -0.17500
C457        C  0.26706323  0.39016382  0.76163061     0.03200
C458        C  0.25085169  0.38609987  0.73107832    -0.25600
H459        H  0.20340133  0.32483047  0.66074350     0.08300
H460        H  0.21844689  0.37149965  0.67567685     0.11900
H461        H  0.25289200  0.29387766  0.74582828     0.11800
H462        H  0.28049218  0.32422270  0.78182024     0.11500
H463        H  0.29121201  0.37024064  0.80198950     0.12100
H464        H  0.24183890  0.40344207  0.71795398     0.14000
C465        C  0.01334522  0.00794141  0.56294007    -0.06000
C466        C  0.52975813  0.48799966  0.55202567    -0.05900
C467        C  0.52608644  0.48015312  0.51681045    -0.24100
C468        C  0.50686065  0.49339598  0.49551482     0.18100
C469        C  0.98793107  0.01165777  0.50756383     0.15400
C470        C  0.99151027  0.01873460  0.54332601    -0.19100
C471        C  0.96663788  0.02281286  0.48751051    -0.20900
C472        C  0.96338889  0.01574215  0.45193489    -0.13500
C473        C  0.48369039  0.49888479  0.43884613     0.03200
C474        C  0.50336083  0.48591299  0.45989985    -0.25600
H475        H  0.54512292  0.47779187  0.56775450     0.08300
H476        H  0.53852145  0.46394812  0.50612959     0.11900
H477        H  0.97788835  0.03324421  0.55551543     0.11800
H478        H  0.95242683  0.03689033  0.49935851     0.11500
H479        H  0.94657054  0.02440273  0.43713642     0.12100
H480        H  0.51534614  0.46948307  0.44887502     0.14000
C481        C  0.08409888  0.09193457  0.62667481    -0.06000
C482        C  0.07317760  0.11830654  0.62430538    -0.05900
C483        C  0.09019133  0.14100119  0.62287083    -0.24100
C484        C  0.11845803  0.13774992  0.62356332     0.18100
C485        C  0.12964231  0.11124798  0.62358744     0.15400
C486        C  0.11240765  0.08850935  0.62518527    -0.19100
C487        C  0.15791578  0.10801138  0.62376696    -0.20900
C488        C  0.17493644  0.13075581  0.62596481    -0.13500
C489        C  0.16401326  0.15716088  0.62822238     0.03200
C490        C  0.13569024  0.16052074  0.62594372    -0.25600
H491        H  0.05145876  0.12154625  0.62547862     0.08300
H492        H  0.08124218  0.16113983  0.62255463     0.11900
H493        H  0.12106803  0.06827073  0.62677082     0.11800
H494        H  0.16687283  0.08787252  0.62350485     0.11500
H495        H  0.19667560  0.12756755  0.62772044     0.12100
H496        H  0.12702552  0.18077361  0.62742455     0.14000
C497        C  0.10699783  0.02062357  0.74841158    -0.06000
C498        C  0.12657480  0.04128681  0.74874016    -0.05900
C499        C  0.14988475  0.53830780  0.76451627    -0.24100
C500        C  0.15744482  0.51160621  0.77323880     0.18100
C501        C  0.13790652  0.49054650  0.77105695     0.15400
C502        C  0.11332790  0.99514708  0.76267646    -0.19100
C503        C  0.14520422  0.46392754  0.78010669    -0.20900
C504        C  0.17193013  0.45795403  0.79010850    -0.13500
C505        C  0.19179788  0.47840958  0.79064821     0.03200
C506        C  0.18436804  0.50533841  0.78277715    -0.25600
H507        H  0.12201492  0.06080235  0.73709555     0.08300
H508        H  0.16458069  0.55471075  0.76618284     0.11900
H509        H  0.09820125  0.97908170  0.76182044     0.11800
H510        H  0.13038541  0.44762763  0.77869109     0.11500
H511        H  0.17731194  0.43713749  0.79614399     0.12100
H512        H  0.19961864  0.52127217  0.78358353     0.14000
C513        C  0.44197244  0.02172504  0.70684385    -0.06000
C514        C  0.41914163  0.03037879  0.68728391    -0.05900
C515        C  0.39297574  0.02199829  0.69647542    -0.24100
C516        C  0.38926776  0.00502474  0.72552768     0.18100
C517        C  0.41226168  0.99553169  0.74446082     0.15400
C518        C  0.43826427  0.00361154  0.73475207    -0.19100
C519        C  0.40848651  0.47955707  0.77857080    -0.20900
C520        C  0.38210709  0.47379477  0.78898537    -0.13500
C521        C  0.35969734  0.48227059  0.76864699     0.03200
C522        C  0.36310129  0.99843488  0.73716823    -0.25600
H523        H  0.42145447  0.04407926  0.66543938     0.08300
H524        H  0.37562542  0.02942379  0.68153685     0.11900
H525        H  0.45562683  0.99641622  0.74989564     0.11800
H526        H  0.42541842  0.47324137  0.79514947     0.11500
H527        H  0.37909674  0.46349189  0.81367168     0.12100
H528        H  0.34530036  0.00650598  0.72374350     0.14000
C529        C  0.01177746  0.11323108  0.73603084    -0.06000
C530        C  0.51599052  0.14153784  0.71183734    -0.05900
C531        C  0.50999964  0.16766032  0.72383977    -0.24100
C532        C  0.49829763  0.17154960  0.75680352     0.18100
C533        C  0.98995930  0.14376947  0.77820216     0.15400
C534        C  0.99531399  0.11719997  0.76564513    -0.19100
C535        C  0.97222922  0.14854365  0.80630526    -0.20900
C536        C  0.47366657  0.17969685  0.82220564    -0.13500
C537        C  0.47689484  0.20174529  0.79950226     0.03200
C538        C  0.48994852  0.19749854  0.76728879    -0.25600
H539        H  0.52407406  0.13902773  0.68567297     0.08300
H540        H  0.51363790  0.18474793  0.70678738     0.11900
H541        H  0.98563371  0.09988102  0.77758385     0.11800
H542        H  0.96291377  0.13165926  0.81960749     0.11500
H543        H  0.95137197  0.17859750  0.83761300     0.12100
H544        H  0.49320732  0.21442493  0.74980709     0.14000
C545        C  0.02016850  0.44871143  0.70175864    -0.06000
C546        C  0.02865904  0.42627769  0.68152257    -0.05900
C547        C  0.02074331  0.39983065  0.69048082    -0.24100
C548        C  0.00410348  0.39556134  0.71962264     0.18100
C549        C  0.99434532  0.41831584  0.73870730     0.15400
C550        C  0.00234047  0.44453932  0.72961980    -0.19100
C551        C  0.97766865  0.41453756  0.76764922    -0.20900
C552        C  0.47302549  0.39221423  0.78747035    -0.13500
C553        C  0.48264528  0.36888428  0.76999833     0.03200
C554        C  0.49733628  0.37156920  0.73882986    -0.25600
H555        H  0.04213147  0.42911057  0.65965363     0.08300
H556        H  0.02825652  0.38270872  0.67528242     0.11900
H557        H  0.99514407  0.46178378  0.74493870     0.11800
H558        H  0.96976307  0.43181995  0.78222590     0.11500
H559        H  0.46143424  0.39051657  0.81132982     0.12100
H560        H  0.50487989  0.35360477  0.72535116     0.14000
O561        O  0.03299058  0.99011949  0.72240470    -0.82500
C562        C  0.06549384  0.57153453  0.63448298     0.96800
O563        O  0.07520989  0.55025619  0.64846028    -0.71700
O564        O  0.07819556  0.51287956  0.69793163    -0.75300
Al565      Al  0.05582786  0.51763939  0.65726619     1.49000
C566        C  0.07993516  0.52595194  0.72651001     0.92100
O567        O  0.01495607  0.56852234  0.73494599    -0.81500
O568        O  0.47644319  0.54444743  0.67745797    -0.75000
Al569      Al  0.02358810  0.53161377  0.72346858     1.90100
O570        O  0.01477374  0.58886698  0.68415851    -0.74100
O571        O  0.00064773  0.53381499  0.61599629    -0.74000
O572        O  0.04014136  0.57389372  0.62835767    -0.79600
O573        O  0.04283700  0.01377126  0.61183645    -0.77800
O574        O  0.02928392  0.53643067  0.67779089    -1.13900
O575        O  0.04013605  0.98080393  0.66632051    -0.73100
C576        C  0.03283310  0.97347943  0.69659019     0.97600
C577        C  0.01412756  0.58993253  0.71716003     0.94000
Al578      Al  0.00928951  0.55955883  0.65256168     1.55600
O579        O  0.06032528  0.54015480  0.73693610    -0.77800
C580        C  0.01792426  0.52097528  0.59832354     0.98100
C581        C  0.47156107  0.52959763  0.70360762     0.93000
O582        O  0.49030421  0.52296647  0.72468949    -0.83100
O583        O  0.21775902  0.76565861  0.72195753    -0.82500
C584        C  0.18155773  0.68372852  0.63735964     0.96800
O585        O  0.17166337  0.70527934  0.65069818    -0.71700
O586        O  0.16852374  0.74472778  0.69895278    -0.75300
Al587      Al  0.19026329  0.73859095  0.65861523     1.49000
C588        C  0.16753380  0.73254262  0.72773058     0.92100
O589        O  0.23247678  0.69041325  0.73848560    -0.81500
O590        O  0.27252518  0.71084881  0.67467508    -0.75000
Al591      Al  0.22403770  0.72720925  0.72582390     1.90100
O592        O  0.23583660  0.66978325  0.68751693    -0.74100
O593        O  0.24445056  0.72293252  0.61764520    -0.74000
O594        O  0.20695596  0.68143123  0.63218896    -0.79600
O595        O  0.20324258  0.73784550  0.61176458    -0.77800
O596        O  0.21784837  0.72115833  0.67994483    -1.13900
O597        O  0.20780622  0.77282323  0.66574449    -0.73100
C598        C  0.21650031  0.78128690  0.69554345     0.97600
C599        C  0.23520128  0.66891467  0.72052143     0.94000
Al600      Al  0.23823324  0.69825419  0.65510631     1.55600
O601        O  0.18760931  0.71914105  0.73864939    -0.77800
C602        C  0.22638652  0.73430534  0.59928049     0.98100
C603        C  0.27857750  0.72700788  0.69982286     0.93000
O604        O  0.26059189  0.73581664  0.72004592    -0.83100
O605        O  0.24558371  0.76724860  0.28175174    -0.82500
C606        C  0.32144605  0.81872966  0.36813389     0.96800
O607        O  0.29606623  0.82024404  0.37330257    -0.71700
O608        O  0.26940841  0.83218307  0.31671081    -0.75300
Al609      Al  0.26590868  0.80358993  0.34860017     1.49000
C610        C  0.27187424  0.83343639  0.28393906     0.92100
O611        O  0.31922044  0.78224797  0.26671815    -0.81500
O612        O  0.29647180  0.72908097  0.33832401    -0.75000
Al613      Al  0.28239830  0.77515034  0.27802816     1.90100
O614        O  0.33703658  0.75784529  0.30857166    -0.74100
O615        O  0.29939781  0.76390597  0.39296834    -0.74000
O616        O  0.33213985  0.79708538  0.35608699    -0.79600
O617        O  0.25837213  0.77879547  0.38552428    -0.77800
O618        O  0.28712051  0.78090339  0.32439568    -1.13900
O619        O  0.23266409  0.79110030  0.32756277    -0.73100
C620        C  0.22727052  0.77537476  0.30188999     0.97600
C621        C  0.33915227  0.76989634  0.27989058     0.94000
Al622      Al  0.31388988  0.76346641  0.34707252     1.55600
O623        O  0.27534033  0.81219384  0.26570280    -0.77800
C624        C  0.27600497  0.76750147  0.40459513     0.98100
C625        C  0.28813347  0.72096615  0.30810253     0.93000
O626        O  0.28782247  0.73673438  0.28185505    -0.83100
O627        O  0.01325399  0.98668103  0.28363817    -0.82500
C628        C  0.43102003  0.93721838  0.35914801     0.96800
O629        O  0.45607631  0.93585404  0.36737934    -0.71700
O630        O  0.48418269  0.92101745  0.31375696    -0.75300
Al631      Al  0.48773175  0.95036503  0.34579232     1.49000
C632        C  0.48575547  0.91992663  0.28079911     0.92100
O633        O  0.44117072  0.97094651  0.25645204    -0.81500
O634        O  0.45832988  0.52605754  0.33559876    -0.75000
Al635      Al  0.47712022  0.97845563  0.27399657     1.90100
O636        O  0.42064349  0.99673169  0.29472324    -0.74100
O637        O  0.45258313  0.99140339  0.38514062    -0.74000
O638        O  0.42133986  0.95788693  0.34352303    -0.79600
O639        O  0.99503745  0.97684316  0.38170225    -0.77800
O640        O  0.46876786  0.97315958  0.31887086    -1.13900
O641        O  0.02274668  0.95943416  0.32732359    -0.73100
C642        C  0.03022352  0.97582191  0.30408977     0.97600
C643        C  0.42090138  0.98481398  0.26532118     0.94000
Al644      Al  0.44072574  0.99120308  0.33726359     1.55600
O645        O  0.48551626  0.94129722  0.26280894    -0.77800
C646        C  0.47560599  0.98830680  0.39922143     0.98100
C647        C  0.46703402  0.53339141  0.30597549     0.93000
O648        O  0.46731365  0.51696132  0.28002321    -0.83100
O649        O  0.46862105  0.74578872  0.78294398    -0.82500
C650        C  0.43665437  0.82445313  0.87519828     0.96800
O651        O  0.42714162  0.80247855  0.86233366    -0.71700
O652        O  0.42158905  0.76534615  0.81244127    -0.75300
Al653      Al  0.44708006  0.77068655  0.85037357     1.49000
C654        C  0.41803723  0.77757463  0.78376075     0.92100
O655        O  0.48144269  0.82123144  0.76774712    -0.81500
O656        O  0.02207911  0.80242351  0.82479474    -0.75000
Al657      Al  0.47424286  0.78411899  0.78035152     1.90100
O658        O  0.48030129  0.84283630  0.81830729    -0.74100
O659        O  0.50475292  0.79097717  0.88287749    -0.74000
O660        O  0.46210933  0.82807597  0.87802589    -0.79600
O661        O  0.46630160  0.77138189  0.89446620    -0.77800
O662        O  0.47089538  0.79011289  0.82644071    -1.13900
O663        O  0.46547289  0.73738044  0.83951012    -0.73100
C664        C  0.47083954  0.72958756  0.80847968     0.97600
C665        C  0.48072736  0.84315756  0.78533756     0.94000
Al666      Al  0.49106943  0.81522034  0.84870989     1.55600
O667        O  0.43694781  0.79100123  0.77035262    -0.77800
C668        C  0.49037536  0.77742210  0.90322476     0.98100
C669        C  0.02817491  0.78297027  0.80416530     0.93000
O670        O  0.00996060  0.76957284  0.78800730    -0.83100
O671        O  0.28189350  0.51417339  0.78341585    -0.82500
C672        C  0.31737069  0.93267440  0.87323891     0.96800
O673        O  0.32655964  0.95516380  0.86283036    -0.71700
O674        O  0.33120973  0.99272826  0.81506762    -0.75300
Al675      Al  0.30642204  0.98734462  0.85259680     1.49000
C676        C  0.33360136  0.98159146  0.78509957     0.92100
O677        O  0.26819103  0.94061022  0.76485297    -0.81500
O678        O  0.22901348  0.95123941  0.82141960    -0.75000
Al679      Al  0.27695264  0.97677002  0.78137401     1.90100
O680        O  0.27285158  0.91643548  0.81240973    -0.74100
O681        O  0.24964360  0.96498139  0.88300349    -0.74000
O682        O  0.29200945  0.92855936  0.87414727    -0.79600
O683        O  0.28529395  0.48708596  0.89381854    -0.77800
O684        O  0.28193456  0.96880101  0.82676627    -1.13900
O685        O  0.28619284  0.52203775  0.84042334    -0.73100
C686        C  0.28033329  0.53021058  0.80966002     0.97600
C687        C  0.27033721  0.91787460  0.77956423     0.94000
Al688      Al  0.26250996  0.94256314  0.84609456     1.55600
O689        O  0.31377753  0.96963849  0.77011079    -0.77800
C690        C  0.26392733  0.97878071  0.90439166     0.98100
C691        C  0.22238923  0.97120559  0.80233405     0.93000
O692        O  0.24023100  0.98537185  0.78790888    -0.83100
O693        O  0.49116505  0.71801759  0.22165817    -0.82500
C694        C  0.06526475  0.67966250  0.13450379     0.96800
O695        O  0.04410495  0.67069005  0.14898690    -0.71700
O696        O  0.00782629  0.66936851  0.19976624    -0.75300
Al697      Al  0.01235282  0.69109218  0.15891884     1.49000
C698        C  0.02131693  0.66819766  0.22814054     0.92100
O699        O  0.06610820  0.73129941  0.23557247    -0.81500
O700        O  0.04717308  0.77134182  0.17541718    -0.75000
Al701      Al  0.02880527  0.72389955  0.22522075     1.90100
O702        O  0.08495427  0.73000941  0.18396562    -0.74100
O703        O  0.02919337  0.74561775  0.11899674    -0.74000
O704        O  0.06800083  0.70486895  0.12830979    -0.79600
O705        O  0.51425793  0.70793712  0.11112435    -0.77800
O706        O  0.03231727  0.71740828  0.17934396    -1.13900
O707        O  0.48186418  0.71132696  0.16533917    -0.73100
C708        C  0.47470864  0.71895414  0.19571556     0.97600
C709        C  0.08692466  0.73062494  0.21688151     0.94000
Al710      Al  0.05537058  0.73643682  0.15381371     1.55600
O711        O  0.03647884  0.68749528  0.23779409    -0.77800
C712        C  0.01548509  0.72878176  0.10102755     0.98100
C713        C  0.03100580  0.77807147  0.19957663     0.93000
O714        O  0.02082811  0.76039040  0.21889119    -0.83100
O715        O  0.26139946  0.51919598  0.21552674    -0.82500
C716        C  0.17492654  0.56148305  0.13630498     0.96800
O717        O  0.19920018  0.56998545  0.13410603    -0.71700
O718        O  0.22219478  0.58552483  0.19242977    -0.75300
Al719      Al  0.23238828  0.55942966  0.15833377     1.49000
C720        C  0.22858003  0.58531603  0.22449317     0.92100
O721        O  0.18848307  0.53271194  0.23797094    -0.81500
O722        O  0.21799527  0.97974526  0.16840516    -0.75000
Al723      Al  0.22504268  0.52627218  0.22538947     1.90100
O724        O  0.17193338  0.50331478  0.19875077    -0.74100
O725        O  0.20994534  0.51103737  0.11248448    -0.74000
O726        O  0.16995858  0.53794219  0.14739458    -0.79600
O727        O  0.24474446  0.53798835  0.12050623    -0.77800
O728        O  0.21723063  0.53187961  0.18024209    -1.13900
O729        O  0.26831706  0.55332976  0.17951069    -0.73100
C730        C  0.27726816  0.53396524  0.19844716     0.97600
C731        C  0.16938418  0.51767379  0.22648856     0.94000
Al732      Al  0.19400752  0.50942217  0.15803327     1.55600
O733        O  0.23344943  0.56309949  0.23934773    -0.77800
C734        C  0.23162464  0.52131418  0.10158445     0.98100
C735        C  0.22545262  0.97236205  0.19881961     0.93000
O736        O  0.22406335  0.98872788  0.22471420    -0.83100
C737        C  0.15173146  0.57969412  0.12802727    -0.06000
C738        C  0.12508720  0.56927739  0.12751245    -0.05900
C739        C  0.10270842  0.58667992  0.12582478    -0.24100
C740        C  0.10647245  0.61489643  0.12479988     0.18100
C741        C  0.13311607  0.62559063  0.12368167     0.15400
C742        C  0.15556891  0.60793309  0.12509427    -0.19100
C743        C  0.13684523  0.65383596  0.12268770    -0.20900
C744        C  0.11451015  0.67132049  0.12410696    -0.13500
C745        C  0.08800552  0.66093214  0.12680861     0.03200
C746        C  0.08411365  0.63260347  0.12638719    -0.25600
H747        H  0.12148277  0.54763083  0.12968879     0.08300
H748        H  0.08245221  0.57809203  0.12649540     0.11900
H749        H  0.17595412  0.61629480  0.12576384     0.11800
H750        H  0.15708602  0.66244426  0.12185837     0.11500
H751        H  0.11812700  0.69306087  0.12474994     0.12100
H752        H  0.06379505  0.62434884  0.12854566     0.14000
C753        C  0.25328920  0.98575735  0.93965414    -0.06000
C754        C  0.22469408  0.48034194  0.94670681    -0.05900
C755        C  0.21572769  0.48497265  0.98097155    -0.24100
C756        C  0.23296539  0.49726009  0.00627995     0.18100
C757        C  0.25941801  0.00747056  0.99738521     0.15400
C758        C  0.26844346  0.00240080  0.96308529    -0.19100
C759        C  0.27476678  0.02376927  0.02075463    -0.20900
C760        C  0.26596603  0.02846039  0.05499508    -0.13500
C761        C  0.24141354  0.51462276  0.06592421     0.03200
C762        C  0.22419632  0.50183662  0.04083309    -0.25600
H763        H  0.21108645  0.47044384  0.92784800     0.08300
H764        H  0.19537535  0.47877121  0.98773102     0.11900
H765        H  0.28748879  0.01114015  0.95482662     0.11800
H766        H  0.29363374  0.03290276  0.01256394     0.11500
H767        H  0.27827819  0.04127251  0.07232735     0.12100
H768        H  0.20381349  0.49596260  0.04795278     0.14000
C769        C  0.50104001  0.76977855  0.93831122    -0.06000
C770        C  0.02018452  0.77848130  0.95292410    -0.05900
C771        C  0.02874037  0.77339343  0.98744212    -0.24100
C772        C  0.01273117  0.75757321  0.00939820     0.18100
C773        C  0.49345569  0.74909080  0.99517097     0.15400
C774        C  0.48487351  0.75431581  0.96062717    -0.19100
C775        C  0.47709470  0.73381015  0.01729302    -0.20900
C776        C  0.48571923  0.72847816  0.05162588    -0.13500
C777        C  0.00548706  0.73584163  0.06562859     0.03200
C778        C  0.02106952  0.75258643  0.04419565    -0.25600
H779        H  0.03277546  0.79111416  0.93670763     0.08300
H780        H  0.04780220  0.78196754  0.99702070     0.11900
H781        H  0.46532775  0.74668991  0.95134442     0.11800
H782        H  0.45774973  0.72576288  0.00794169     0.11500
H783        H  0.47294272  0.71624930  0.06813277     0.12100
H784        H  0.04007491  0.76101529  0.05426365     0.14000
C785        C  0.41803063  0.84706369  0.88453931    -0.06000
C786        C  0.42814814  0.87377899  0.88804966    -0.05900
C787        C  0.41046193  0.89601450  0.88960494    -0.24100
C788        C  0.38228343  0.89199609  0.88785660     0.18100
C789        C  0.37189412  0.86515446  0.88672762     0.15400
C790        C  0.38978729  0.84289381  0.88508615    -0.19100
C791        C  0.34375212  0.86106152  0.88543640    -0.20900
C792        C  0.32609579  0.88324251  0.88329478    -0.13500
C793        C  0.33616710  0.91003252  0.88217513     0.03200
C794        C  0.36437835  0.91427587  0.88548867    -0.25600
H795        H  0.44978675  0.87765469  0.88760331     0.08300
H796        H  0.41885385  0.91640241  0.89078282     0.11900
H797        H  0.38167920  0.82243182  0.88249791     0.11800
H798        H  0.33539309  0.84065172  0.88479376     0.11500
H799        H  0.30451752  0.87927451  0.88070724     0.12100
H800        H  0.37245835  0.93478402  0.88475239     0.14000
C801        C  0.01768847  0.64473032  0.25058752    -0.06000
C802        C  0.53343500  0.61856292  0.22821998    -0.05900
C803        C  0.52675343  0.59277531  0.24015003    -0.24100
C804        C  0.50761494  0.58989967  0.26671289     0.18100
C805        C  0.98634948  0.61565537  0.28130707     0.15400
C806        C  0.99231589  0.64057800  0.26581534    -0.19100
C807        C  0.96039448  0.61051549  0.29451448    -0.20900
C808        C  0.95347909  0.58429569  0.30513705    -0.13500
C809        C  0.47790959  0.56091803  0.30051233     0.03200
C810        C  0.49834701  0.56408056  0.27556660    -0.25600
H811        H  0.54678436  0.62040528  0.20599616     0.08300
H812        H  0.53546897  0.57505716  0.22736940     0.11900
H813        H  0.97682281  0.65618725  0.26380269     0.11800
H814        H  0.94511495  0.62635566  0.29494096     0.11500
H815        H  0.93291867  0.58010774  0.31319003     0.12100
H816        H  0.50654958  0.54634862  0.26218667     0.14000
C817        C  0.48828327  0.89304076  0.26368650    -0.06000
C818        C  0.47267695  0.87133700  0.27586977    -0.05900
C819        C  0.47692807  0.84496757  0.26324316    -0.24100
C820        C  0.49745339  0.83975800  0.23899163     0.18100
C821        C  0.01105560  0.86099497  0.22572140     0.15400
C822        C  0.00574956  0.88777056  0.23723163    -0.19100
C823        C  0.03047379  0.85551477  0.19987775    -0.20900
C824        C  0.03679374  0.82856867  0.19047544    -0.13500
C825        C  0.02363133  0.80679478  0.20663704     0.03200
C826        C  0.50336632  0.81299680  0.22882330    -0.25600
H827        H  0.45745677  0.87477977  0.29569504     0.08300
H828        H  0.46482109  0.82850386  0.27341749     0.11900
H829        H  0.01673367  0.90466780  0.22617711     0.11800
H830        H  0.04119983  0.87201459  0.18756557     0.11500
H831        H  0.05230836  0.82476803  0.17118365     0.12100
H832        H  0.49141991  0.79656808  0.23941117     0.14000
C833        C  0.14402921  0.51607264  0.24569712    -0.06000
C834        C  0.12740632  0.03764042  0.24407095    -0.05900
C835        C  0.10113677  0.03459309  0.25668244    -0.24100
C836        C  0.09373743  0.01057075  0.27363381     0.18100
C837        C  0.11028523  0.48864288  0.27471233     0.15400
C838        C  0.13581088  0.49111164  0.25938284    -0.19100
C839        C  0.10177778  0.46368621  0.28821972    -0.20900
C840        C  0.07544025  0.46079009  0.30069689    -0.13500
C841        C  0.05920208  0.98178453  0.29923048     0.03200
C842        C  0.06685387  0.00632446  0.28359572    -0.25600
H843        H  0.13252635  0.05576214  0.22964682     0.08300
H844        H  0.08639170  0.05060675  0.25218931     0.11900
H845        H  0.14911194  0.47359345  0.25749199     0.11800
H846        H  0.11517554  0.44621478  0.28809723     0.11500
H847        H  0.06883396  0.44099678  0.30941777     0.12100
H848        H  0.05167141  0.02175243  0.27811895     0.14000
C849        C  0.39710428  0.98798613  0.24197859    -0.06000
C850        C  0.37663660  0.46540396  0.24180562    -0.05900
C851        C  0.35085913  0.46995037  0.22686602    -0.24100
C852        C  0.34229859  0.49654052  0.21916157     0.18100
C853        C  0.36042999  0.51854738  0.22452588     0.15400
C854        C  0.38983754  0.01418237  0.23071755    -0.19100
C855        C  0.35198959  0.54509131  0.21648269    -0.20900
C856        C  0.32523015  0.55005300  0.20535250    -0.13500
C857        C  0.30658008  0.52856469  0.20245525     0.03200
C858        C  0.31548570  0.50172257  0.20816973    -0.25600
H859        H  0.38237288  0.44501494  0.24946371     0.08300
H860        H  0.33721502  0.45285058  0.22273718     0.11900
H861        H  0.40399576  0.03089771  0.23471786     0.11800
H862        H  0.36575637  0.56213398  0.22019921     0.11500
H863        H  0.31868714  0.57081563  0.20115073     0.12100
H864        H  0.30114987  0.48500546  0.20567277     0.14000
C865        C  0.41373060  0.91342543  0.36681961    -0.06000
C866        C  0.42614283  0.88803060  0.37272285    -0.05900
C867        C  0.41059928  0.86453954  0.37625659    -0.24100
C868        C  0.38225616  0.86594489  0.37451850     0.18100
C869        C  0.36944558  0.89154092  0.37050004     0.15400
C870        C  0.38525036  0.91510332  0.36620492    -0.19100
C871        C  0.34105075  0.89296762  0.37008751    -0.20900
C872        C  0.32557065  0.86923612  0.37216637    -0.13500
C873        C  0.33812294  0.84353206  0.37356625     0.03200
C874        C  0.36655917  0.84209423  0.37556361    -0.25600
H875        H  0.44804808  0.88607745  0.37326662     0.08300
H876        H  0.42079090  0.84518089  0.37965354     0.11900
H877        H  0.37544296  0.93456572  0.36193889     0.11800
H878        H  0.33079312  0.91236374  0.36745503     0.11500
H879        H  0.30366363  0.87093685  0.37091935     0.12100
H880        H  0.37646546  0.82241777  0.37688526     0.14000
C881        C  0.23560370  0.94453183  0.20530560    -0.06000
C882        C  0.22804057  0.92233965  0.18359551    -0.05900
C883        C  0.23565486  0.89578224  0.19273624    -0.24100
C884        C  0.25098695  0.89111915  0.22365729     0.18100
C885        C  0.25975018  0.91362215  0.24448419     0.15400
C886        C  0.25217641  0.94000151  0.23509308    -0.19100
C887        C  0.27497067  0.90941853  0.27535361    -0.20900
C888        C  0.27997527  0.88311584  0.28685951    -0.13500
C889        C  0.27026348  0.86048116  0.26756934     0.03200
C890        C  0.25666094  0.86449477  0.23512758    -0.25600
H891        H  0.21542574  0.92542175  0.16034839     0.08300
H892        H  0.22886336  0.87887484  0.17624940     0.11900
H893        H  0.25856794  0.95704582  0.25167854     0.11800
H894        H  0.28208306  0.92647754  0.29136619     0.11500
H895        H  0.29082518  0.88044192  0.31155091     0.12100
H896        H  0.24905615  0.84710540  0.22012744     0.14000
C897        C  0.27747584  0.69317396  0.30226249    -0.06000
C898        C  0.28948316  0.67029223  0.31779192    -0.05900
C899        C  0.28054404  0.64404109  0.30817937    -0.24100
C900        C  0.25935729  0.64046874  0.28317566     0.18100
C901        C  0.24629541  0.66359483  0.26908081     0.15400
C902        C  0.25538481  0.68962734  0.27875914    -0.19100
C903        C  0.22519734  0.66041828  0.24415219    -0.20900
C904        C  0.21835425  0.63459740  0.23127320    -0.13500
C905        C  0.23213227  0.61148124  0.24353232     0.03200
C906        C  0.25189860  0.61438996  0.27060586    -0.25600
H907        H  0.30643460  0.67267842  0.33612444     0.08300
H908        H  0.29072305  0.62657314  0.31943733     0.11900
H909        H  0.24575825  0.70726031  0.26710408     0.11800
H910        H  0.21482255  0.67799193  0.23344714     0.11500
H911        H  0.20294262  0.63277048  0.21065725     0.12100
H912        H  0.26273583  0.59665005  0.28004247     0.14000
C913        C  0.36551836  0.76902747  0.26285286    -0.06000
C914        C  0.38835874  0.77730442  0.28272012    -0.05900
C915        C  0.41432092  0.77096050  0.27148728    -0.24100
C916        C  0.41773829  0.75560297  0.24062326     0.18100
C917        C  0.39496790  0.74810465  0.21946171     0.15400
C918        C  0.36877658  0.75524596  0.23055930    -0.19100
C919        C  0.39885858  0.73239996  0.18874492    -0.20900
C920        C  0.42492288  0.72326919  0.18005236    -0.13500
C921        C  0.44727051  0.72966735  0.20209373     0.03200
C922        C  0.44354675  0.74654096  0.23167867    -0.25600
H923        H  0.38598841  0.78764452  0.30785806     0.08300
H924        H  0.43164506  0.77689698  0.28783120     0.11900
H925        H  0.35103913  0.74836349  0.21565284     0.11800
H926        H  0.38170934  0.72656307  0.17205843     0.11500
H927        H  0.42748111  0.71057607  0.15683239     0.12100
H928        H  0.46077109  0.75213329  0.24844163     0.14000
C929        C  0.11414499  0.73158626  0.23307497    -0.06000
C930        C  0.13606788  0.72032109  0.21481874    -0.05900
C931        C  0.16258209  0.72485858  0.22664731    -0.24100
C932        C  0.16751712  0.74119943  0.25651773     0.18100
C933        C  0.14558144  0.75155949  0.27608146     0.15400
C934        C  0.11888372  0.74622249  0.26455680    -0.19100
C935        C  0.15078715  0.76827131  0.30566157    -0.20900
C936        C  0.17744835  0.77568056  0.31474384    -0.13500
C937        C  0.19920531  0.76626950  0.29452890     0.03200
C938        C  0.19405513  0.74838770  0.26603994    -0.25600
H939        H  0.13269642  0.70868890  0.19071028     0.08300
H940        H  0.17921589  0.71660207  0.21158024     0.11900
H941        H  0.10197386  0.75500891  0.27861122     0.11800
H942        H  0.13423279  0.77628932  0.32105743     0.11500
H943        H  0.18097755  0.78923776  0.33705780     0.12100
H944        H  0.21062436  0.74081593  0.25028553     0.14000
C945        C  0.23170247  0.74293162  0.56267770    -0.06000
C946        C  0.21109448  0.75558542  0.54256283    -0.05900
C947        C  0.21539883  0.76278184  0.50758378    -0.24100
C948        C  0.24040077  0.75743513  0.49187020     0.18100
C949        C  0.26129572  0.74487438  0.51187769     0.15400
C950        C  0.25686538  0.73777648  0.54706122    -0.19100
C951        C  0.28629505  0.73948033  0.49632326    -0.20900
C952        C  0.29065321  0.74649011  0.46139806    -0.13500
C953        C  0.27013937  0.75908748  0.44110577     0.03200
C954        C  0.24491570  0.76445602  0.45659363    -0.25600
H955        H  0.19145748  0.75978033  0.55380346     0.08300
H956        H  0.19911080  0.77240762  0.49278481     0.11900
H957        H  0.27291562  0.72798030  0.56212337     0.11800
H958        H  0.30255424  0.72988415  0.51120587     0.11500
H959        H  0.31032889  0.74217869  0.45034147     0.12100
H960        H  0.22895687  0.77428201  0.44140035     0.14000
C961        C  0.05687992  0.77643083  0.79738830    -0.06000
C962        C  0.07654214  0.79709443  0.79876083    -0.05900
C963        C  0.10297588  0.79193432  0.78776267    -0.24100
C964        C  0.11024864  0.76590540  0.77568366     0.18100
C965        C  0.09106339  0.74450715  0.77613923     0.15400
C966        C  0.06441369  0.74995757  0.78678682    -0.19100
C967        C  0.09860835  0.71835038  0.76453075    -0.20900
C968        C  0.12447787  0.71382892  0.75088178    -0.13500
C969        C  0.14294987  0.73539703  0.74862139     0.03200
C970        C  0.13600024  0.76122275  0.76170662    -0.25600
H971        H  0.07113502  0.81758442  0.80679981     0.08300
H972        H  0.11751981  0.80847979  0.78778874     0.11900
H973        H  0.04938308  0.73382070  0.78599303     0.11800
H974        H  0.08421866  0.70167532  0.76485547     0.11500
H975        H  0.12955689  0.69390400  0.74039251     0.12100
H976        H  0.15029824  0.77789673  0.75963143     0.14000
C977        C  0.39149558  0.77529029  0.76616707    -0.06000
C978        C  0.36943129  0.78930860  0.78034494    -0.05900
C979        C  0.34312590  0.78378147  0.76815471    -0.24100
C980        C  0.33854506  0.76376350  0.74207491     0.18100
C981        C  0.36072218  0.74987046  0.72707996     0.15400
C982        C  0.38723334  0.75589106  0.73914443    -0.19100
C983        C  0.35579836  0.72950234  0.70143461    -0.20900
C984        C  0.32911295  0.72249471  0.69144181    -0.13500
C985        C  0.30698563  0.73571361  0.70703841     0.03200
C986        C  0.31204365  0.75666529  0.73190851    -0.25600
H987        H  0.37253812  0.80387697  0.80169990     0.08300
H988        H  0.32629441  0.79442988  0.78007235     0.11900
H989        H  0.40435590  0.74460229  0.72891123     0.11800
H990        H  0.37255004  0.71858660  0.68969990     0.11500
H991        H  0.32578241  0.70624390  0.67233611     0.12100
H992        H  0.29528091  0.76696628  0.74443353     0.14000
C993        C  0.23770432  0.64201176  0.73742573    -0.06000
C994        C  0.22787686  0.61907624  0.71882340    -0.05900
C995        C  0.23259070  0.59298068  0.73126952    -0.24100
C996        C  0.24767506  0.58916678  0.76235331     0.18100
C997        C  0.25687878  0.61190047  0.78237057     0.15400
C998        C  0.25150838  0.63841518  0.76994870    -0.19100
C999        C  0.27209678  0.60745189  0.81354474    -0.20900
C1000       C  0.27910403  0.58085459  0.82370189    -0.13500
C1001       C  0.27104903  0.55840196  0.80273436     0.03200
C1002       C  0.25458029  0.56284384  0.77277503    -0.25600
H1003       H  0.21692998  0.62133816  0.69404177     0.08300
H1004       H  0.22520528  0.57569739  0.71587178     0.11900
H1005       H  0.25922839  0.65600174  0.78445884     0.11800
H1006       H  0.27922181  0.62453423  0.82949477     0.11500
H1007       H  0.29159529  0.57791280  0.84708390     0.12100
H1008       H  0.24769055  0.54565628  0.75676731     0.14000
C1009       C  0.22626200  0.80940872  0.70054209    -0.06000
C1010       C  0.21284025  0.83175740  0.68558287    -0.05900
C1011       C  0.22081689  0.85834890  0.69497464    -0.24100
C1012       C  0.24238452  0.86274319  0.71918588     0.18100
C1013       C  0.25694207  0.84015172  0.73234679     0.15400
C1014       C  0.24882691  0.81383056  0.72284128    -0.19100
C1015       C  0.27832068  0.84406504  0.75663364    -0.20900
C1016       C  0.28383655  0.86993988  0.77019544    -0.17500
C1017       C  0.26849473  0.89237265  0.75905818     0.03200
C1018       C  0.24860812  0.88896911  0.73229033    -0.25600
H1019       H  0.19548789  0.82865253  0.66808284     0.08300
H1020       H  0.20949770  0.87538878  0.68440433     0.11900
H1021       H  0.25939589  0.79659071  0.73408827     0.11800
H1022       H  0.28975345  0.82690898  0.76664248     0.11500
H1023       H  0.29930761  0.87229454  0.79065454     0.12100
H1024       H  0.23657415  0.90626064  0.72388230     0.14000
C1025       C  0.01186361  0.51116756  0.56211782    -0.06000
C1026       C  0.52812969  0.98994717  0.54809098    -0.05900
C1027       C  0.52439829  0.98175607  0.51307965    -0.24100
C1028       C  0.50404264  0.99365498  0.49225771     0.18100
C1029       C  0.98725401  0.51506404  0.50621856     0.15400
C1030       C  0.99090145  0.52275987  0.54175450    -0.19100
C1031       C  0.96665308  0.52677758  0.48551918    -0.20900
C1032       C  0.96295321  0.51866741  0.45037644    -0.13500
C1033       C  0.48021767  0.99772169  0.43590032     0.03200
C1034       C  0.50079419  0.98604418  0.45673131    -0.25600
H1035       H  0.54439213  0.98076792  0.56338804     0.08300
H1036       H  0.53771248  0.96638967  0.50214848     0.11900
H1037       H  0.97795349  0.53821483  0.55323952     0.11800
H1038       H  0.95322439  0.54197466  0.49659267     0.11500
H1039       H  0.94661012  0.52770832  0.43507738     0.12100
H1040       H  0.51394268  0.97064780  0.44548681     0.14000
C1041       C  0.08350775  0.59489571  0.62740786    -0.06000
C1042       C  0.07258495  0.62133985  0.62692955    -0.05900
C1043       C  0.08956268  0.64409225  0.62647212    -0.24100
C1044       C  0.11781458  0.64085747  0.62607058     0.18100
C1045       C  0.12900338  0.61437693  0.62447726     0.15400
C1046       C  0.11179378  0.59154805  0.62533873    -0.19100
C1047       C  0.15727058  0.61121839  0.62350509    -0.20900
C1048       C  0.17430998  0.63396697  0.62577577    -0.13500
C1049       C  0.16342532  0.66030385  0.62930239     0.03200
C1050       C  0.13505736  0.66360584  0.62860194    -0.25600
H1051       H  0.05088980  0.62451477  0.62874259     0.08300
H1052       H  0.08060736  0.66422155  0.62750540     0.11900
H1053       H  0.12043575  0.57126198  0.62559961     0.11800
H1054       H  0.16623628  0.59111178  0.62203614     0.11500
H1055       H  0.19607527  0.63081682  0.62635297     0.12100
H1056       H  0.12638402  0.68379880  0.63114097     0.14000
C1057       C  0.10470306  0.52255378  0.74784070    -0.06000
C1058       C  0.12358078  0.54374909  0.75183160    -0.05900
C1059       C  0.15277920  0.03620287  0.76182961    -0.24100
C1060       C  0.15962483  0.01033757  0.77455185     0.18100
C1061       C  0.13953976  0.98984544  0.77585870     0.15400
C1062       C  0.11171756  0.49618968  0.75829876    -0.19100
C1063       C  0.14638345  0.96404521  0.78873078    -0.20900
C1064       C  0.17319432  0.95820063  0.79877283    -0.13500
C1065       C  0.19354830  0.97800282  0.79579704     0.03200
C1066       C  0.18645119  0.00426391  0.78451261    -0.25600
H1067       H  0.11849147  0.56406799  0.74318457     0.08300
H1068       H  0.16796382  0.05212412  0.76069856     0.11900
H1069       H  0.09711217  0.47980166  0.75474607     0.11800
H1070       H  0.13116772  0.94817505  0.79009875     0.11500
H1071       H  0.17820380  0.93790142  0.80754677     0.12100
H1072       H  0.20195968  0.01981558  0.78262150     0.14000
C1073       C  0.44367034  0.51963430  0.71044381    -0.06000
C1074       C  0.42144544  0.52681677  0.68878214    -0.05900
C1075       C  0.39509858  0.51831424  0.69682627    -0.24100
C1076       C  0.39048853  0.50265709  0.72683245     0.18100
C1077       C  0.41285065  0.49467297  0.74814417     0.15400
C1078       C  0.43914952  0.50292790  0.73963983    -0.19100
C1079       C  0.40893688  0.97912167  0.77396921    -0.20900
C1080       C  0.38300506  0.97347241  0.78598447    -0.13500
C1081       C  0.36002503  0.98334532  0.76805910     0.03200
C1082       C  0.36392560  0.49597741  0.73695230    -0.25600
H1083       H  0.42436081  0.53938362  0.66595361     0.08300
H1084       H  0.37825424  0.52458466  0.68009397     0.11900
H1085       H  0.45603093  0.49695280  0.75653803     0.11800
H1086       H  0.42640565  0.97167963  0.78868020     0.11500
H1087       H  0.38083872  0.96205987  0.81000068     0.12100
H1088       H  0.34659931  0.50304787  0.72162910     0.14000
C1089       C  0.01160905  0.61670471  0.73466371    -0.06000
C1090       C  0.52113496  0.63959187  0.71680650    -0.05900
C1091       C  0.51613097  0.66599607  0.72861878    -0.24100
C1092       C  0.50239953  0.67043064  0.76010443     0.18100
C1093       C  0.99163237  0.64585558  0.77978926     0.15400
C1094       C  0.99725170  0.61972362  0.76621548    -0.19100
C1095       C  0.97565758  0.64953650  0.80985491    -0.20900
C1096       C  0.47377463  0.67959725  0.82239973    -0.13500
C1097       C  0.48009031  0.70157847  0.80076259     0.03200
C1098       C  0.49506249  0.69681952  0.77016255    -0.25600
H1099       H  0.53090314  0.63666744  0.69173670     0.08300
H1100       H  0.52215363  0.68292319  0.71249864     0.11900
H1101       H  0.98924083  0.60191983  0.77902355     0.11800
H1102       H  0.96815928  0.63210789  0.82391810     0.11500
H1103       H  0.95509946  0.67827815  0.84344171     0.12100
H1104       H  0.50055687  0.71370755  0.75361304     0.14000
C1105       C  0.02315219  0.94567405  0.70311306    -0.06000
C1106       C  0.03232586  0.92284471  0.68418637    -0.05900
C1107       C  0.02424171  0.89660773  0.69389668    -0.24100
C1108       C  0.00677008  0.89307322  0.72240921     0.18100
C1109       C  0.99648202  0.91625643  0.74006687     0.15400
C1110       C  0.00462759  0.94215339  0.73025681    -0.19100
C1111       C  0.97905057  0.91333235  0.76838827    -0.20900
C1112       C  0.47419346  0.89308639  0.78732599    -0.13500
C1113       C  0.48209925  0.86982236  0.76821264     0.03200
C1114       C  0.49468662  0.87281536  0.73551083    -0.25600
H1115       H  0.04641216  0.92523324  0.66287908     0.08300
H1116       H  0.03220497  0.87913129  0.67981273     0.11900
H1117       H  0.99699702  0.95971706  0.74454206     0.11800
H1118       H  0.97083739  0.93099232  0.78185983     0.11500
H1119       H  0.46422147  0.89126826  0.81239132     0.12100
H1120       H  0.50091115  0.85495974  0.72068891     0.14000
O1121       O  0.53359032  0.49381561  0.72712016    -0.82500
C1122       C  0.56387039  0.07241222  0.63428774     0.96800
O1123       O  0.57433486  0.05115055  0.64753244    -0.71700
O1124       O  0.57930197  0.01402930  0.69748292    -0.75300
Al1125     Al  0.55578859  0.01843968  0.65771370     1.49000
C1126       C  0.58183871  0.02752477  0.72558684     0.92100
O1127       O  0.51800023  0.07096451  0.73586967    -0.81500
O1128       O  0.97631099  0.04429884  0.67415795    -0.75000
Al1129     Al  0.52542251  0.03369398  0.72511279     1.90100
O1130       O  0.51087547  0.08874727  0.68422685    -0.74100
O1131       O  0.50041635  0.03295409  0.61664504    -0.74000
O1132       O  0.53828707  0.07475030  0.62966164    -0.79600
O1133       O  0.54354441  0.51575644  0.61539257    -0.77800
O1134       O  0.52941759  0.03727678  0.67876382    -1.13900
O1135       O  0.54030827  0.48372990  0.67095502    -0.73100
C1136       C  0.53286120  0.47698339  0.70145079     0.97600
C1137       C  0.51359432  0.09135759  0.71698281     0.94000
Al1138     Al  0.50787748  0.05884934  0.65320890     1.55600
O1139       O  0.56250848  0.04178462  0.73655070    -0.77800
C1140       C  0.51770411  0.02029688  0.59903200     0.98100
C1141       C  0.97080100  0.02774453  0.69830306     0.93000
O1142       O  0.98924427  0.01857689  0.71814654    -0.83100
O1143       O  0.71578158  0.26453360  0.72174701    -0.82500
C1144       C  0.67925560  0.18437666  0.63412839     0.96800
O1145       O  0.66959786  0.20600598  0.64756862    -0.71700
O1146       O  0.66621504  0.24492931  0.69625460    -0.75300
Al1147     Al  0.68901159  0.23871915  0.65698009     1.49000
C1148       C  0.66433416  0.23292819  0.72507346     0.92100
O1149       O  0.72791739  0.18901015  0.73753353    -0.81500
O1150       O  0.76963711  0.20740218  0.67627146    -0.75000
Al1151     Al  0.72093360  0.22610863  0.72525086     1.90100
O1152       O  0.73053840  0.16817231  0.68655284    -0.74100
O1153       O  0.74398678  0.22134317  0.61844662    -0.74000
O1154       O  0.70463900  0.18155974  0.62978120    -0.79600
O1155       O  0.70349217  0.23800666  0.61121077    -0.77800
O1156       O  0.71539939  0.22029535  0.67917036    -1.13900
O1157       O  0.70756499  0.27235479  0.66538883    -0.73100
C1158       C  0.71610301  0.28026503  0.69550544     0.97600
C1159       C  0.72963333  0.16739698  0.71952229     0.94000
Al1160     Al  0.73551391  0.19667763  0.65490489     1.55600
O1161       O  0.68400507  0.21942718  0.73711231    -0.77800
C1162       C  0.72681751  0.23368197  0.59975529     0.98100
C1163       C  0.77593787  0.22393113  0.70085971     0.93000
O1164       O  0.75802280  0.23376323  0.72044344    -0.83100
O1165       O  0.74524455  0.26444821  0.28801428    -0.82500
C1166       C  0.82199119  0.31781001  0.37208448     0.96800
O1167       O  0.79684435  0.31856611  0.37856515    -0.71700
O1168       O  0.77201690  0.33206404  0.32120925    -0.75300
Al1169     Al  0.76690990  0.30314110  0.35219215     1.49000
C1170       C  0.77119499  0.33261210  0.28817033     0.92100
O1171       O  0.81759948  0.28317984  0.26883536    -0.81500
O1172       O  0.79865091  0.22835035  0.34027199    -0.75000
Al1173     Al  0.78149726  0.27426557  0.28172981     1.90100
O1174       O  0.83759935  0.25925236  0.30984962    -0.74100
O1175       O  0.79999874  0.26217248  0.39502255    -0.74000
O1176       O  0.83266879  0.29667695  0.35886982    -0.79600
O1177       O  0.75881130  0.27733906  0.38729533    -0.77800
O1178       O  0.78756321  0.28023054  0.32762564    -1.13900
O1179       O  0.73319571  0.29259851  0.33005641    -0.73100
C1180       C  0.72714675  0.27518080  0.30649298     0.97600
C1181       C  0.83835808  0.27151901  0.28109454     0.94000
Al1182     Al  0.81495826  0.26304617  0.34932036     1.55600
O1183       O  0.77191179  0.31092283  0.27014714    -0.77800
C1184       C  0.77618234  0.26501753  0.40577473     0.98100
C1185       C  0.79044829  0.22023475  0.31012042     0.93000
O1186       O  0.78915082  0.23627572  0.28427881    -0.83100
O1187       O  0.51100964  0.48842466  0.28782120    -0.82500
C1188       C  0.92972230  0.43736996  0.35968726     0.96800
O1189       O  0.95470483  0.43677669  0.36820863    -0.71700
O1190       O  0.98063610  0.42267805  0.31241273    -0.75300
Al1191     Al  0.98564072  0.45126551  0.34505417     1.49000
C1192       C  0.98382124  0.42228552  0.27963496     0.92100
O1193       O  0.93983780  0.47285313  0.25653241    -0.81500
O1194       O  0.95962141  0.02527881  0.33123702    -0.75000
Al1195     Al  0.97523955  0.48117970  0.27491642     1.90100
O1196       O  0.91793378  0.49660420  0.29583364    -0.74100
O1197       O  0.95103444  0.49147977  0.38590886    -0.74000
O1198       O  0.91963829  0.45770190  0.34395007    -0.79600
O1199       O  0.49515943  0.47628136  0.38507879    -0.77800
O1200       O  0.96651147  0.47459188  0.31928038    -1.13900
O1201       O  0.52086621  0.45856845  0.32854082    -0.73100
C1202       C  0.52824738  0.47587429  0.30627370     0.97600
C1203       C  0.91913302  0.48595062  0.26564843     0.94000
Al1204     Al  0.93808619  0.49148242  0.33831571     1.55600
O1205       O  0.98513817  0.44418644  0.26263922    -0.77800
C1206       C  0.97458897  0.48900775  0.39892266     0.98100
C1207       C  0.96950268  0.03282473  0.30227071     0.93000
O1208       O  0.97087952  0.01653429  0.27613847    -0.83100
O1209       O  0.96760666  0.24182565  0.78000873    -0.82500
C1210       C  0.93512540  0.32317961  0.86722106     0.96800
O1211       O  0.92536542  0.30096520  0.85547894    -0.71700
O1212       O  0.92010427  0.26297098  0.80681766    -0.75300
Al1213     Al  0.94471808  0.26837278  0.84566179     1.49000
C1214       C  0.91743178  0.27492956  0.77782811     0.92100
O1215       O  0.98234313  0.31677439  0.76269090    -0.81500
O1216       O  0.52118093  0.30470401  0.82748673    -0.75000
Al1217     Al  0.97411403  0.27996740  0.77639805     1.90100
O1218       O  0.98136578  0.33912427  0.81264584    -0.74100
O1219       O  0.00166020  0.28822671  0.88063683    -0.74000
O1220       O  0.96054235  0.32623609  0.87133535    -0.79600
O1221       O  0.96264347  0.26931783  0.89095201    -0.77800
O1222       O  0.96979551  0.28675787  0.82220870    -1.13900
O1223       O  0.96228954  0.23423387  0.83654512    -0.73100
C1224       C  0.96826447  0.22586611  0.80592762     0.97600
C1225       C  0.98190329  0.33898313  0.77969203     0.94000
Al1226     Al  0.99003289  0.31178335  0.84459513     1.55600
O1227       O  0.93705361  0.28752865  0.76473496    -0.77800
C1228       C  0.98645437  0.27546062  0.90082661     0.98100
C1229       C  0.52684094  0.28606936  0.80534152     0.93000
O1230       O  0.50832231  0.27435291  0.78768620    -0.83100
O1231       O  0.78241397  0.01512177  0.78289166    -0.82500
C1232       C  0.81796887  0.43459739  0.86983853     0.96800
O1233       O  0.82685395  0.45682584  0.85810536    -0.71700
O1234       O  0.82957299  0.49539782  0.81045167    -0.75300
Al1235     Al  0.80585208  0.48859480  0.84932219     1.49000
C1236       C  0.83200475  0.48335393  0.78106862     0.92100
O1237       O  0.76847638  0.43859433  0.76475734    -0.81500
O1238       O  0.72893927  0.44993394  0.82112341    -0.75000
Al1239     Al  0.77586334  0.47568680  0.77939047     1.90100
O1240       O  0.77337600  0.41625518  0.81383816    -0.74100
O1241       O  0.74955896  0.46715181  0.88108005    -0.74000
O1242       O  0.79276837  0.43122958  0.87439618    -0.79600
O1243       O  0.78880479  0.99087928  0.89513147    -0.77800
O1244       O  0.78133540  0.46914396  0.82481702    -1.13900
O1245       O  0.78709760  0.02428566  0.83961138    -0.73100
C1246       C  0.78031650  0.03151697  0.80871404     0.97600
C1247       C  0.77097740  0.41641371  0.78089163     0.94000
Al1248     Al  0.76268048  0.44330130  0.84587562     1.55600
O1249       O  0.81282426  0.46922997  0.76817523    -0.77800
C1250       C  0.76424808  0.48037186  0.90262399     0.98100
C1251       C  0.72180073  0.46923207  0.80133690     0.93000
O1252       O  0.73906459  0.48329758  0.78579419    -0.83100
O1253       O  0.99048217  0.22076004  0.22248584    -0.82500
C1254       C  0.56635379  0.18079539  0.13714566     0.96800
O1255       O  0.54473076  0.17223125  0.15070285    -0.71700
O1256       O  0.50874216  0.17069392  0.20044813    -0.75300
Al1257     Al  0.51292356  0.19261882  0.16000722     1.49000
C1258       C  0.52230467  0.16958514  0.22877375     0.92100
O1259       O  0.56459502  0.23447142  0.23831742    -0.81500
O1260       O  0.54820004  0.27285972  0.17797830    -0.75000
Al1261     Al  0.52755614  0.22612908  0.22658486     1.90100
O1262       O  0.58502235  0.23082233  0.18786427    -0.74100
O1263       O  0.53096589  0.24715548  0.12025167    -0.74000
O1264       O  0.56951313  0.20598948  0.13115011    -0.79600
O1265       O  0.01187760  0.20690442  0.11131936    -0.77800
O1266       O  0.53238727  0.21904610  0.18096779    -1.13900
O1267       O  0.98026599  0.21138183  0.16686197    -0.73100
C1268       C  0.97351415  0.22004529  0.19702285     0.97600
C1269       C  0.58598746  0.23280038  0.22077868     0.94000
Al1270     Al  0.55635076  0.23772369  0.15633527     1.55600
O1271       O  0.53538538  0.18989648  0.24023357    -0.77800
C1272       C  0.51668784  0.23060840  0.10243474     0.98100
C1273       C  0.53100808  0.27999056  0.20080272     0.93000
O1274       O  0.51914157  0.26252789  0.21884145    -0.83100
O1275       O  0.76590680  0.01890276  0.21512688    -0.82500
C1276       C  0.67574346  0.06115546  0.14234164     0.96800
O1277       O  0.69975786  0.06995153  0.13933803    -0.71700
O1278       O  0.72275105  0.08418138  0.19783824    -0.75300
Al1279     Al  0.73340668  0.05982026  0.16234196     1.49000
C1280       C  0.73106475  0.08371644  0.22915323     0.92100
O1281       O  0.69371753  0.02915473  0.24403556    -0.81500
O1282       O  0.71646537  0.47682255  0.16903189    -0.75000
Al1283     Al  0.72985151  0.02443704  0.22821539     1.90100
O1284       O  0.67545768  0.00211069  0.20316072    -0.74100
O1285       O  0.71200257  0.01143278  0.11557416    -0.74000
O1286       O  0.67155741  0.03731346  0.15287755    -0.79600
O1287       O  0.74571998  0.03985052  0.12351831    -0.77800
O1288       O  0.71992703  0.03105830  0.18380492    -1.13900
O1289       O  0.76989986  0.05506736  0.18175428    -0.73100
C1290       C  0.78037229  0.03525578  0.19833922     0.97600
C1291       C  0.67384063  0.01545474  0.23185265     0.94000
Al1292     Al  0.69646118  0.00881324  0.16180474     1.55600
O1293       O  0.73761683  0.06143652  0.24291465    -0.77800
C1294       C  0.73310840  0.02292218  0.10442887     0.98100
C1295       C  0.72411959  0.46975660  0.19947755     0.93000
O1296       O  0.72341559  0.48647167  0.22499324    -0.83100
C1297       C  0.65217197  0.07940886  0.13546319    -0.06000
C1298       C  0.62550949  0.06948367  0.13855973    -0.05900
C1299       C  0.60323819  0.08710240  0.13702606    -0.24100
C1300       C  0.60708778  0.11509462  0.13249495     0.18100
C1301       C  0.63365814  0.12527934  0.12821207     0.15400
C1302       C  0.65599677  0.10739493  0.12956649    -0.19100
C1303       C  0.63747806  0.15332086  0.12389858    -0.20900
C1304       C  0.61535350  0.17117695  0.12491922    -0.13500
C1305       C  0.58890644  0.16140693  0.13032875     0.03200
C1306       C  0.58493255  0.13315936  0.13346621    -0.25600
H1307       H  0.62185952  0.04811686  0.14325631     0.08300
H1308       H  0.58302269  0.07889915  0.14032794     0.11900
H1309       H  0.67638942  0.11546135  0.12744672     0.11800
H1310       H  0.65768814  0.16155157  0.12066109     0.11500
H1311       H  0.61913373  0.19280274  0.12289400     0.12100
H1312       H  0.56472299  0.12528468  0.13789218     0.14000
C1313       C  0.75351990  0.48737508  0.93797004    -0.06000
C1314       C  0.72977469  0.98042412  0.95001213    -0.05900
C1315       C  0.72072923  0.98409476  0.98434652    -0.24100
C1316       C  0.73635876  0.99893919  0.00898146     0.18100
C1317       C  0.76082392  0.50312831  0.99871229     0.15400
C1318       C  0.77059681  0.49840771  0.96457972    -0.19100
C1319       C  0.77794855  0.51384020  0.02525244    -0.20900
C1320       C  0.76816212  0.51862316  0.05905248    -0.13500
C1321       C  0.74300579  0.01758688  0.06832837     0.03200
C1322       C  0.72748544  0.00236660  0.04373971    -0.25600
H1323       H  0.71737728  0.96840104  0.93184113     0.08300
H1324       H  0.70158994  0.97509164  0.99170102     0.11900
H1325       H  0.79162487  0.50288651  0.95894325     0.11800
H1326       H  0.79891812  0.51870037  0.01982722     0.11500
H1327       H  0.78188096  0.52717972  0.07885918     0.12100
H1328       H  0.70834044  0.99354529  0.05145166     0.14000
C1329       C  0.99613094  0.26896295  0.93685608    -0.06000
C1330       C  0.51774702  0.28185844  0.95486378    -0.05900
C1331       C  0.52640576  0.27746233  0.98948594    -0.24100
C1332       C  0.51144991  0.26057085  0.01131050     0.18100
C1333       C  0.99066796  0.24499125  0.99212919     0.15400
C1334       C  0.98242901  0.24976612  0.95714874    -0.19100
C1335       C  0.97733814  0.22556445  0.01227588    -0.20900
C1336       C  0.98569519  0.22090199  0.04702024    -0.13500
C1337       C  0.50596564  0.23785275  0.06729328     0.03200
C1338       C  0.52025803  0.25584516  0.04604037    -0.25600
H1339       H  0.52962253  0.29526603  0.93877357     0.08300
H1340       H  0.54482410  0.28728597  0.99918049     0.11900
H1341       H  0.96535581  0.23860772  0.94576888     0.11800
H1342       H  0.96059262  0.21383412  0.00109238     0.11500
H1343       H  0.97526160  0.20554615  0.06188565     0.12100
H1344       H  0.53875555  0.26535107  0.05608308     0.14000
C1345       C  0.91699808  0.34664602  0.87391049    -0.06000
C1346       C  0.92771804  0.37320440  0.87414705    -0.05900
C1347       C  0.91059426  0.39584449  0.87511277    -0.24100
C1348       C  0.88239321  0.39240484  0.87627976     0.18100
C1349       C  0.87142613  0.36581891  0.87734162     0.15400
C1350       C  0.88875194  0.34312667  0.87591393    -0.19100
C1351       C  0.84324830  0.36236961  0.87881427    -0.20900
C1352       C  0.82606219  0.38495481  0.87831847    -0.13500
C1353       C  0.83665576  0.41147097  0.87600809     0.03200
C1354       C  0.86496178  0.41504418  0.87541353    -0.25600
H1355       H  0.94937017  0.37653110  0.87209375     0.08300
H1356       H  0.91939615  0.41603329  0.87424355     0.11900
H1357       H  0.88022132  0.32277977  0.87551107     0.11800
H1358       H  0.83445303  0.34217569  0.87961719     0.11500
H1359       H  0.80433501  0.38153184  0.87828887     0.12100
H1360       H  0.87339141  0.43533479  0.87336649     0.14000
C1361       C  0.52210697  0.14407497  0.24790201    -0.06000
C1362       C  0.03564192  0.12130509  0.22936959    -0.05900
C1363       C  0.02931568  0.09504518  0.23999358    -0.24100
C1364       C  0.01003285  0.09105547  0.26613051     0.18100
C1365       C  0.49697922  0.11392280  0.28567332     0.15400
C1366       C  0.50336808  0.14032177  0.27480238    -0.19100
C1367       C  0.47652781  0.10947377  0.31029495    -0.20900
C1368       C  0.46798221  0.08294964  0.31747436    -0.13500
C1369       C  0.98027633  0.06064071  0.29795799     0.03200
C1370       C  0.00077729  0.06482514  0.27330599    -0.25600
H1371       H  0.04890693  0.12396186  0.20720584     0.08300
H1372       H  0.03829641  0.07785519  0.22636066     0.11900
H1373       H  0.49224556  0.15764606  0.28504514     0.11800
H1374       H  0.46647305  0.12648763  0.32293404     0.11500
H1375       H  0.45148223  0.07988787  0.33547630     0.12100
H1376       H  0.00903844  0.04763601  0.25887126     0.14000
C1377       C  0.98629136  0.39548250  0.26196515    -0.06000
C1378       C  0.97203522  0.37342753  0.27578283    -0.05900
C1379       C  0.97651942  0.34706502  0.26350331    -0.24100
C1380       C  0.99577036  0.34212014  0.23755722     0.18100
C1381       C  0.51468121  0.36249026  0.23257585     0.15400
C1382       C  0.51003946  0.38869339  0.24657141    -0.19100
C1383       C  0.53864349  0.35632650  0.21451844    -0.20900
C1384       C  0.54365586  0.32969975  0.20250803    -0.13500
C1385       C  0.52471996  0.30893330  0.20826402     0.03200
C1386       C  0.00192545  0.31536481  0.22768729    -0.25600
H1387       H  0.95776666  0.37655339  0.29684392     0.08300
H1388       H  0.96558130  0.33041528  0.27520942     0.11900
H1389       H  0.52499225  0.40463245  0.24336621     0.11800
H1390       H  0.55380658  0.37191046  0.21053407     0.11500
H1391       H  0.56272418  0.32514157  0.18995495     0.12100
H1392       H  0.99122306  0.29885000  0.24004727     0.14000
C1393       C  0.64773124  0.01570003  0.24967017    -0.06000
C1394       C  0.62873699  0.53671168  0.25157343    -0.05900
C1395       C  0.60249719  0.53422249  0.26470733    -0.24100
C1396       C  0.59340634  0.50912172  0.27726229     0.18100
C1397       C  0.61455210  0.99285185  0.28578003     0.15400
C1398       C  0.64147919  0.99592862  0.27463849    -0.19100
C1399       C  0.60746601  0.97218914  0.30913196    -0.20900
C1400       C  0.58015982  0.96755457  0.31702413    -0.13500
C1401       C  0.55736843  0.48048612  0.29996697     0.03200
C1402       C  0.56645107  0.50581602  0.28795100    -0.25600
H1403       H  0.63506562  0.55592421  0.24069179     0.08300
H1404       H  0.58908544  0.55169505  0.26415656     0.11900
H1405       H  0.65717224  0.98212107  0.28379080     0.11800
H1406       H  0.62292045  0.95902842  0.32030650     0.11500
H1407       H  0.57509512  0.95080292  0.33395250     0.12100
H1408       H  0.55237120  0.52272297  0.28615311     0.14000
C1409       C  0.89629970  0.49045748  0.24121826    -0.06000
C1410       C  0.88265957  0.96794869  0.22731570    -0.05900
C1411       C  0.85729974  0.97299811  0.21150707    -0.24100
C1412       C  0.84728552  0.99972982  0.20960977     0.18100
C1413       C  0.86385113  0.02173871  0.22095978     0.15400
C1414       C  0.88719576  0.51722516  0.23625587    -0.19100
C1415       C  0.85401067  0.04848790  0.21875944    -0.20900
C1416       C  0.82711736  0.05325560  0.20824043    -0.13500
C1417       C  0.80988081  0.03131341  0.20003278     0.03200
C1418       C  0.82035263  0.00471061  0.19915059    -0.25600
H1419       H  0.88936774  0.94715042  0.23074931     0.08300
H1420       H  0.84492619  0.95594747  0.20254299     0.11900
H1421       H  0.89915576  0.53410829  0.24677903     0.11800
H1422       H  0.86661683  0.06556311  0.22703995     0.11500
H1423       H  0.81925080  0.07383261  0.20907799     0.12100
H1424       H  0.80699751  0.98776776  0.19253949     0.14000
C1425       C  0.91299590  0.41323893  0.36714900    -0.06000
C1426       C  0.92581130  0.38782406  0.37087226    -0.05900
C1427       C  0.91060637  0.36416823  0.37471674    -0.24100
C1428       C  0.88225987  0.36546587  0.37542770     0.18100
C1429       C  0.86912175  0.39102086  0.37314564     0.15400
C1430       C  0.88456250  0.41476023  0.36859892    -0.19100
C1431       C  0.84074867  0.39223724  0.37461818    -0.20900
C1432       C  0.82554107  0.36833885  0.37693147    -0.13500
C1433       C  0.83838922  0.34276095  0.37721403     0.03200
C1434       C  0.86683906  0.34153516  0.37719737    -0.25600
H1435       H  0.94769453  0.38606550  0.36957933     0.08300
H1436       H  0.92102159  0.34479771  0.37652865     0.11900
H1437       H  0.87451215  0.43426735  0.36586624     0.11800
H1438       H  0.83027743  0.41159138  0.37309431     0.11500
H1439       H  0.80359864  0.36982660  0.37659052     0.12100
H1440       H  0.87694147  0.32192855  0.37735257     0.14000
C1441       C  0.73363452  0.44189452  0.20656928    -0.06000
C1442       C  0.72295671  0.41925324  0.18815678    -0.05900
C1443       C  0.72974889  0.39283158  0.19870243    -0.24100
C1444       C  0.74735717  0.38880266  0.22770354     0.18100
C1445       C  0.75904226  0.41164134  0.24521234     0.15400
C1446       C  0.75226802  0.43788295  0.23439019    -0.19100
C1447       C  0.77641201  0.40799596  0.27432518    -0.20900
C1448       C  0.78104850  0.38202309  0.28729136    -0.13500
C1449       C  0.76884725  0.35920764  0.27101417     0.03200
C1450       C  0.75265970  0.36254819  0.24048932    -0.25600
H1451       H  0.70853363  0.42199039  0.16664246     0.08300
H1452       H  0.72062014  0.37560835  0.18488754     0.11900
H1453       H  0.76085441  0.45531182  0.24844151     0.11800
H1454       H  0.78565798  0.42531064  0.28782806     0.11500
H1455       H  0.79379971  0.37977639  0.31058485     0.12100
H1456       H  0.74306298  0.34498299  0.22797858     0.14000
C1457       C  0.78081800  0.19220985  0.30405398    -0.06000
C1458       C  0.79370380  0.16959513  0.31906956    -0.05900
C1459       C  0.78512323  0.14318171  0.30971336    -0.24100
C1460       C  0.76335079  0.13924223  0.28567035     0.18100
C1461       C  0.74962115  0.16214895  0.27200277     0.15400
C1462       C  0.75845797  0.18828159  0.28121573    -0.19100
C1463       C  0.72787842  0.15870345  0.24817970    -0.20900
C1464       C  0.72073160  0.13278603  0.23619531    -0.13500
C1465       C  0.73502248  0.10983353  0.24803115     0.03200
C1466       C  0.75576043  0.11303568  0.27377639    -0.25600
H1467       H  0.81092067  0.17234202  0.33689526     0.08300
H1468       H  0.79585689  0.12590093  0.32060532     0.11900
H1469       H  0.74821526  0.20573259  0.26995427     0.11800
H1470       H  0.71707471  0.17612992  0.23776771     0.11500
H1471       H  0.70466654  0.13076701  0.21646706     0.12100
H1472       H  0.76707131  0.09544134  0.28274148     0.14000
C1473       C  0.86405033  0.27125892  0.26247808    -0.06000
C1474       C  0.88693511  0.28253689  0.27954543    -0.05900
C1475       C  0.91288810  0.27633435  0.26794926    -0.24100
C1476       C  0.91625589  0.25818368  0.23963659     0.18100
C1477       C  0.89330404  0.24763930  0.22118426     0.15400
C1478       C  0.86715431  0.25454990  0.23255621    -0.19100
C1479       C  0.89702594  0.22923852  0.19303869    -0.20900
C1480       C  0.92319805  0.22061141  0.18418965    -0.13500
C1481       C  0.94586130  0.23012228  0.20359263     0.03200
C1482       C  0.94222217  0.24942473  0.23067631    -0.25600
H1483       H  0.88470572  0.29501640  0.30305489     0.08300
H1484       H  0.93032344  0.28461149  0.28223797     0.11900
H1485       H  0.84942158  0.24529498  0.22001320     0.11800
H1486       H  0.87969870  0.22100337  0.17851428     0.11500
H1487       H  0.92566028  0.20589810  0.16302149     0.12100
H1488       H  0.95966810  0.25723874  0.24541999     0.14000
C1489       C  0.61272678  0.23387611  0.23827363    -0.06000
C1490       C  0.63417445  0.21882019  0.22399834    -0.05900
C1491       C  0.66056322  0.22234632  0.23691981    -0.24100
C1492       C  0.66594664  0.24150644  0.26372675     0.18100
C1493       C  0.64440448  0.25621170  0.27905660     0.15400
C1494       C  0.61771608  0.25190946  0.26661844    -0.19100
C1495       C  0.65015129  0.27582782  0.30532596    -0.20900
C1496       C  0.67707979  0.28155640  0.31525266    -0.13500
C1497       C  0.69857123  0.26758244  0.29924033     0.03200
C1498       C  0.69270823  0.24704306  0.27419093    -0.25600
H1499       H  0.63055564  0.20475102  0.20220624     0.08300
H1500       H  0.67687491  0.21088761  0.22500682     0.11900
H1501       H  0.60117512  0.26375492  0.27737199     0.11800
H1502       H  0.63391386  0.28729570  0.31737963     0.11500
H1503       H  0.68110150  0.29741608  0.33470953     0.12100
H1504       H  0.70903549  0.23602354  0.26166456     0.14000
C1505       C  0.73318366  0.24258519  0.56384676    -0.06000
C1506       C  0.71626945  0.26168234  0.54704027    -0.05900
C1507       C  0.72084782  0.26925326  0.51241133    -0.24100
C1508       C  0.74236670  0.25779309  0.49380891     0.18100
C1509       C  0.75955568  0.23855375  0.51038822     0.15400
C1510       C  0.75492061  0.23113863  0.54536609    -0.19100
C1511       C  0.78111382  0.22716915  0.49169009    -0.20900
C1512       C  0.78604830  0.23531627  0.45730457    -0.13500
C1513       C  0.76932457  0.25475280  0.44085137     0.03200
C1514       C  0.74720225  0.26556311  0.45908779    -0.25600
H1515       H  0.69935781  0.27077402  0.56070883     0.08300
H1516       H  0.70751517  0.28406289  0.50016995     0.11900
H1517       H  0.76790380  0.21617975  0.55795409     0.11800
H1518       H  0.79440970  0.21228026  0.50382924     0.11500
H1519       H  0.80316364  0.22660259  0.44365730     0.12100
H1520       H  0.73428958  0.28068406  0.44669951     0.14000
C1521       C  0.55526672  0.27767584  0.79883271    -0.06000
C1522       C  0.57746609  0.29341104  0.81081108    -0.05900
C1523       C  0.60396668  0.28636347  0.80129077    -0.24100
C1524       C  0.60865177  0.26348533  0.77964350     0.18100
C1525       C  0.58651628  0.24691895  0.76876125     0.15400
C1526       C  0.56015088  0.25398014  0.77863398    -0.19100
C1527       C  0.59091822  0.22420777  0.74682397    -0.20900
C1528       C  0.61686186  0.21868305  0.73432936    -0.13500
C1529       C  0.63881117  0.23541470  0.74415481     0.03200
C1530       C  0.63479535  0.25752028  0.76733034    -0.25600
H1531       H  0.57427486  0.31159710  0.82659120     0.08300
H1532       H  0.62070645  0.29922611  0.81003375     0.11900
H1533       H  0.54328900  0.24136017  0.76957801     0.11800
H1534       H  0.57411552  0.21136133  0.73820391     0.11500
H1535       H  0.61964001  0.20198739  0.71583176     0.12100
H1536       H  0.65170553  0.27081979  0.77419037     0.14000
C1537       C  0.89101344  0.27320923  0.75962371    -0.06000
C1538       C  0.86965328  0.28962898  0.77125904    -0.05900
C1539       C  0.84301195  0.28427047  0.76000416    -0.24100
C1540       C  0.83737850  0.26202270  0.73750636     0.18100
C1541       C  0.85891032  0.24589613  0.72473488     0.15400
C1542       C  0.88571569  0.25170923  0.73577783    -0.19100
C1543       C  0.85309396  0.22353346  0.70246003    -0.20900
C1544       C  0.82614131  0.21671407  0.69381649    -0.13500
C1545       C  0.80458882  0.23204700  0.70745355     0.03200
C1546       C  0.81048053  0.25501912  0.72878001    -0.25600
H1547       H  0.87348777  0.30587374  0.79027682     0.08300
H1548       H  0.82673438  0.29681815  0.77001293     0.11900
H1549       H  0.90221752  0.23864060  0.72753099     0.11800
H1550       H  0.86934006  0.21097699  0.69237223     0.11500
H1551       H  0.82214377  0.19900144  0.67726702     0.12100
H1552       H  0.79411220  0.26716226  0.73928693     0.14000
C1553       C  0.73161970  0.14057886  0.73651536    -0.06000
C1554       C  0.72300164  0.11732385  0.71752310    -0.05900
C1555       C  0.72893135  0.09139538  0.72983647    -0.24100
C1556       C  0.74401584  0.08823339  0.76109453     0.18100
C1557       C  0.75146914  0.11131582  0.78163985     0.15400
C1558       C  0.74483433  0.13749061  0.76941666    -0.19100
C1559       C  0.76660022  0.10771989  0.81300464    -0.20900
C1560       C  0.77543797  0.08168059  0.82285930    -0.13500
C1561       C  0.76934770  0.05895711  0.80136435     0.03200
C1562       C  0.75285151  0.06239787  0.77115168    -0.25600
H1563       H  0.71245946  0.11923430  0.69239582     0.08300
H1564       H  0.72275762  0.07382903  0.71408352     0.11900
H1565       H  0.75155202  0.15534385  0.78421528     0.11800
H1566       H  0.77231722  0.12511993  0.82931542     0.11500
H1567       H  0.78780105  0.07944105  0.84649068     0.12100
H1568       H  0.74749059  0.04492622  0.75470941     0.14000
C1569       C  0.72740573  0.30778703  0.70122324    -0.06000
C1570       C  0.71896223  0.33021473  0.68131869    -0.05900
C1571       C  0.72827655  0.35644764  0.69033561    -0.24100
C1572       C  0.74627746  0.36039800  0.71913981     0.18100
C1573       C  0.75615623  0.33752394  0.73752045     0.15400
C1574       C  0.74674064  0.31156992  0.72841030    -0.19100
C1575       C  0.77413592  0.34096365  0.76614040    -0.20900
C1576       C  0.78055231  0.36697512  0.77846195    -0.17500
C1577       C  0.76935960  0.38999096  0.76215744     0.03200
C1578       C  0.75328102  0.38669180  0.73136087    -0.25600
H1579       H  0.70437020  0.32761182  0.65987389     0.08300
H1580       H  0.72068253  0.37367632  0.67564469     0.11900
H1581       H  0.75375724  0.29429730  0.74349586     0.11800
H1582       H  0.78208395  0.32354728  0.78016313     0.11500
H1583       H  0.79323903  0.36907606  0.80194826     0.12100
H1584       H  0.74452877  0.40436170  0.71870455     0.14000
C1585       C  0.51144362  0.01003039  0.56309887    -0.06000
C1586       C  0.02875301  0.49139110  0.54676119    -0.05900
C1587       C  0.02512899  0.48352560  0.51161266    -0.24100
C1588       C  0.00460634  0.49536886  0.49102253     0.18100
C1589       C  0.48673013  0.01350182  0.50719066     0.15400
C1590       C  0.49041823  0.02145166  0.54263679    -0.19100
C1591       C  0.46629221  0.02525471  0.48623641    -0.20900
C1592       C  0.46297336  0.01731881  0.45095713    -0.13500
C1593       C  0.98000291  0.49897386  0.43517503     0.03200
C1594       C  0.00103933  0.48765300  0.45557006    -0.25600
H1595       H  0.04505468  0.48213871  0.56191585     0.08300
H1596       H  0.03852668  0.46832653  0.50047142     0.11900
H1597       H  0.47756676  0.03709074  0.55390369     0.11800
H1598       H  0.45283136  0.04050233  0.49713834     0.11500
H1599       H  0.44688362  0.02653259  0.43538864     0.12100
H1600       H  0.01411971  0.47227115  0.44416293     0.14000
C1601       C  0.58144951  0.09583873  0.62635029    -0.06000
C1602       C  0.57044141  0.12223428  0.62692449    -0.05900
C1603       C  0.58729686  0.14502031  0.62581754    -0.24100
C1604       C  0.61546896  0.14183403  0.62367707     0.18100
C1605       C  0.62664948  0.11539871  0.62088255     0.15400
C1606       C  0.60958451  0.09254219  0.62242315    -0.19100
C1607       C  0.65481719  0.11229541  0.61820151    -0.20900
C1608       C  0.67183327  0.13503256  0.62029183    -0.13500
C1609       C  0.66100110  0.16127348  0.62529520     0.03200
C1610       C  0.63268530  0.16457014  0.62588865    -0.25600
H1611       H  0.54884771  0.12532241  0.63005747     0.08300
H1612       H  0.57835725  0.16511760  0.62778084     0.11900
H1613       H  0.61826726  0.07227109  0.62184637     0.11800
H1614       H  0.66375830  0.09223027  0.61573566     0.11500
H1615       H  0.69358825  0.13188507  0.61976879     0.12100
H1616       H  0.62407305  0.18468965  0.62955133     0.14000
C1617       C  0.60759850  0.02554504  0.74519169    -0.06000
C1618       C  0.62917084  0.04253177  0.73628127    -0.05900
C1619       C  0.65046458  0.53633102  0.77656835    -0.24100
C1620       C  0.65841072  0.50915278  0.78146619     0.18100
C1621       C  0.63983578  0.48786112  0.77391033     0.15400
C1622       C  0.61238346  0.00304953  0.76689298    -0.19100
C1623       C  0.64755784  0.46071351  0.77921716    -0.20900
C1624       C  0.67403841  0.45458743  0.79015584    -0.13500
C1625       C  0.69303904  0.47551845  0.79544781     0.03200
C1626       C  0.68498480  0.50279644  0.79205963    -0.25600
H1627       H  0.62576866  0.05949177  0.71879792     0.08300
H1628       H  0.66444021  0.55285904  0.78250512     0.11900
H1629       H  0.59572314  0.98955831  0.77297280     0.11800
H1630       H  0.63342644  0.44423212  0.77374648     0.11500
H1631       H  0.68006095  0.43349038  0.79269939     0.12100
H1632       H  0.69967481  0.51897379  0.79655398     0.14000
C1633       C  0.94248431  0.01913858  0.70477663    -0.06000
C1634       C  0.92020151  0.03198722  0.68844578    -0.05900
C1635       C  0.89362162  0.02552526  0.69804766    -0.24100
C1636       C  0.88896951  0.00626344  0.72430370     0.18100
C1637       C  0.91126332  0.99245938  0.73973541     0.15400
C1638       C  0.93768309  0.99872811  0.72959110    -0.19100
C1639       C  0.90196674  0.47035883  0.74606846    -0.20900
C1640       C  0.87668292  0.46601277  0.76122047    -0.13500
C1641       C  0.85720231  0.48676230  0.76151471     0.03200
C1642       C  0.86266571  0.00148744  0.73670613    -0.25600
H1643       H  0.92333543  0.04762756  0.66910697     0.08300
H1644       H  0.87678438  0.03623121  0.68581133     0.11900
H1645       H  0.95459696  0.98839676  0.74221611     0.11800
H1646       H  0.91706854  0.45433525  0.74706972     0.11500
H1647       H  0.87264930  0.44681236  0.77381720     0.12100
H1648       H  0.84552743  0.01272614  0.72604178     0.14000
C1649       C  0.51081558  0.11881841  0.73273736    -0.06000
C1650       C  0.02404952  0.13574112  0.72047677    -0.05900
C1651       C  0.01938110  0.16195789  0.73324967    -0.24100
C1652       C  0.00185432  0.16620248  0.76139388     0.18100
C1653       C  0.49401349  0.14912555  0.77892939     0.15400
C1654       C  0.50068871  0.12275376  0.76689926    -0.19100
C1655       C  0.48216054  0.15352008  0.81196033    -0.20900
C1656       C  0.96571579  0.17528594  0.81670633    -0.13500
C1657       C  0.97672876  0.19749181  0.79896408     0.03200
C1658       C  0.99527566  0.19268753  0.77194836    -0.25600
H1659       H  0.03692879  0.13304382  0.69785863     0.08300
H1660       H  0.02878286  0.17899726  0.72034657     0.11900
H1661       H  0.49660186  0.10531709  0.78317106     0.11800
H1662       H  0.47887715  0.13664891  0.82945947     0.11500
H1663       H  0.46401356  0.18256931  0.84736742     0.12100
H1664       H  0.00410918  0.20973122  0.75836145     0.14000
C1665       C  0.52237981  0.44959102  0.70828214    -0.06000
C1666       C  0.52983055  0.42674596  0.68815474    -0.05900
C1667       C  0.52086696  0.40078339  0.69749500    -0.24100
C1668       C  0.50431901  0.39754185  0.72693373     0.18100
C1669       C  0.49570870  0.42077779  0.74597401     0.15400
C1670       C  0.50460946  0.44647856  0.73639207    -0.19100
C1671       C  0.47931277  0.41797891  0.77538584    -0.20900
C1672       C  0.97225323  0.38841254  0.77929127    -0.13500
C1673       C  0.98312923  0.36553209  0.76202496     0.03200
C1674       C  0.99812218  0.36911279  0.73120300    -0.25600
H1675       H  0.54322066  0.42887045  0.66605146     0.08300
H1676       H  0.52750077  0.38323388  0.68240434     0.11900
H1677       H  0.49818546  0.46412081  0.75153598     0.11800
H1678       H  0.47235470  0.43568727  0.78993965     0.11500
H1679       H  0.96039179  0.38611147  0.80281927     0.12100
H1680       H  0.00665110  0.35156852  0.71781622     0.14000
O1681       O  0.53132300  0.99529524  0.72325335    -0.82500
C1682       C  0.56560079  0.57125919  0.63818536     0.96800
O1683       O  0.57628690  0.55026169  0.65187087    -0.71700
O1684       O  0.58094131  0.51286535  0.70183511    -0.75300
Al1685     Al  0.55797957  0.51731248  0.66175978     1.49000
C1686       C  0.58306182  0.52581555  0.73041232     0.92100
O1687       O  0.51917968  0.56926235  0.73976987    -0.81500
O1688       O  0.97509191  0.54977649  0.67325200    -0.75000
Al1689     Al  0.52713332  0.53214582  0.72903614     1.90100
O1690       O  0.51269590  0.58710998  0.68801624    -0.74100
O1691       O  0.50253689  0.53098325  0.62070678    -0.74000
O1692       O  0.53999523  0.57320443  0.63338087    -0.79600
O1693       O  0.54108302  0.01688330  0.61156453    -0.77800
O1694       O  0.53129933  0.53577977  0.68270264    -1.13900
O1695       O  0.53778545  0.98498857  0.66717657    -0.73100
C1696       C  0.53028387  0.97837881  0.69769926     0.97600
C1697       C  0.51519109  0.58967824  0.72080098     0.94000
Al1698     Al  0.50970804  0.55710978  0.65710747     1.55600
O1699       O  0.56407040  0.54088447  0.74048539    -0.77800
C1700       C  0.52009210  0.51882630  0.60291173     0.98100
C1701       C  0.96891531  0.53309649  0.69696916     0.93000
O1702       O  0.98693752  0.52250187  0.71621436    -0.83100
O1703       O  0.71659550  0.76366661  0.72671868    -0.82500
C1704       C  0.68038745  0.68381947  0.63846779     0.96800
O1705       O  0.67086278  0.70531659  0.65239089    -0.71700
O1706       O  0.66839866  0.74363236  0.70190075    -0.75300
Al1707     Al  0.69040944  0.73800613  0.66188247     1.49000
C1708       C  0.66706002  0.73129188  0.73057688     0.92100
O1709       O  0.73185034  0.68877466  0.74144662    -0.81500
O1710       O  0.77096894  0.70642269  0.68019970    -0.75000
Al1711     Al  0.72319248  0.72544615  0.72931139     1.90100
O1712       O  0.73147772  0.66742645  0.69065564    -0.74100
O1713       O  0.74512021  0.72080731  0.62245490    -0.74000
O1714       O  0.70573404  0.68106153  0.63383044    -0.79600
O1715       O  0.70459437  0.73764022  0.61588866    -0.77800
O1716       O  0.71701421  0.71959491  0.68340710    -1.13900
O1717       O  0.70889920  0.77171055  0.67040754    -0.73100
C1718       C  0.71690519  0.77962152  0.70075558     0.97600
C1719       C  0.73215173  0.66699301  0.72370250     0.94000
Al1720     Al  0.73673265  0.69593717  0.65890251     1.55600
O1721       O  0.68674177  0.71734304  0.74169562    -0.77800
C1722       C  0.72785981  0.73339335  0.60409762     0.98100
C1723       C  0.77734502  0.72390535  0.70365061     0.93000
O1724       O  0.75963151  0.73439148  0.72297147    -0.83100
O1725       O  0.74555420  0.76544678  0.28979055    -0.82500
C1726       C  0.82318816  0.81749253  0.37339223     0.96800
O1727       O  0.79793081  0.81922321  0.37926198    -0.71700
O1728       O  0.77154446  0.83207198  0.32264433    -0.75300
Al1729     Al  0.76727278  0.80337730  0.35458942     1.49000
C1730       C  0.77196892  0.83257678  0.28961168     0.92100
O1731       O  0.81835165  0.78228660  0.27177114    -0.81500
O1732       O  0.79677584  0.72783238  0.34312592    -0.75000
Al1733     Al  0.78195503  0.77422147  0.28407454     1.90100
O1734       O  0.83710461  0.75725686  0.31250927    -0.74100
O1735       O  0.80035739  0.76235250  0.39788053    -0.74000
O1736       O  0.83335070  0.79571886  0.36098677    -0.79600
O1737       O  0.75960527  0.77852032  0.39131646    -0.77800
O1738       O  0.78767156  0.78012017  0.33011447    -1.13900
O1739       O  0.73325515  0.79183439  0.33363759    -0.73100
C1740       C  0.72741692  0.77498770  0.30922878     0.97600
C1741       C  0.83864390  0.76998366  0.28418272     0.94000
Al1742     Al  0.81458859  0.76228256  0.35189740     1.55600
O1743       O  0.77351488  0.81087383  0.27186482    -0.77800
C1744       C  0.77705898  0.76625108  0.40970136     0.98100
C1745       C  0.78846441  0.71995781  0.31278714     0.93000
O1746       O  0.78854370  0.73601623  0.28692352    -0.83100
O1747       O  0.51357111  0.98681378  0.28436795    -0.82500
C1748       C  0.93153014  0.93740245  0.35988863     0.96800
O1749       O  0.95652588  0.93646215  0.36847435    -0.71700
O1750       O  0.98340511  0.92093556  0.31431416    -0.75300
Al1751     Al  0.98789879  0.95040160  0.34567272     1.49000
C1752       C  0.98518267  0.91955842  0.28140966     0.92100
O1753       O  0.94087511  0.97023693  0.25687030    -0.81500
O1754       O  0.95466136  0.52603563  0.33376824    -0.75000
Al1755     Al  0.97688023  0.97804804  0.27374750     1.90100
O1756       O  0.92094773  0.99666045  0.29498567    -0.74100
O1757       O  0.95355122  0.99177301  0.38508344    -0.74000
O1758       O  0.92164982  0.95801254  0.34426936    -0.79600
O1759       O  0.49405881  0.97641120  0.38250590    -0.77800
O1760       O  0.96888528  0.97312404  0.31879597    -1.13900
O1761       O  0.52286808  0.96025437  0.32874674    -0.73100
C1762       C  0.53048451  0.97660058  0.30551544     0.97600
C1763       C  0.92103418  0.98478560  0.26551716     0.94000
Al1764     Al  0.94116838  0.99139231  0.33737540     1.55600
O1765       O  0.98536312  0.94078188  0.26311653    -0.77800
C1766       C  0.97671140  0.98862988  0.39881941     0.98100
C1767       C  0.96432400  0.53479871  0.30545980     0.93000
O1768       O  0.96791948  0.51932001  0.27898154    -0.83100
O1769       O  0.96513505  0.74218383  0.78393962    -0.82500
C1770       C  0.93383925  0.82388454  0.87138231     0.96800
O1771       O  0.92396818  0.80172221  0.85952607    -0.71700
O1772       O  0.91911336  0.76395007  0.81023663    -0.75300
Al1773     Al  0.94341268  0.76890269  0.84956767     1.49000
C1774       C  0.91700795  0.77625915  0.78136000     0.92100
O1775       O  0.98347802  0.81587973  0.76687844    -0.81500
O1776       O  0.52378679  0.80756199  0.82334819    -0.75000
Al1777     Al  0.97343370  0.77975991  0.78069977     1.90100
O1778       O  0.97982900  0.83895407  0.81601281    -0.74100
O1779       O  0.00053963  0.78836063  0.88419883    -0.74000
O1780       O  0.95934288  0.82668493  0.87529948    -0.79600
O1781       O  0.96136145  0.76975170  0.89473083    -0.77800
O1782       O  0.96868247  0.78696510  0.82625890    -1.13900
O1783       O  0.96116958  0.73463343  0.84055343    -0.73100
C1784       C  0.96704819  0.72638831  0.80984189     0.97600
C1785       C  0.98212093  0.83828917  0.78321427     0.94000
Al1786     Al  0.98883243  0.81197500  0.84828212     1.55600
O1787       O  0.93690637  0.78877223  0.76878210    -0.77800
C1788       C  0.98536923  0.77543323  0.90429033     0.98100
C1789       C  0.52953442  0.78877344  0.80166822     0.93000
O1790       O  0.51117978  0.77599370  0.78507601    -0.83100
O1791       O  0.78109493  0.51406988  0.78419003    -0.82500
C1792       C  0.81723918  0.93702439  0.87256685     0.96800
O1793       O  0.82647930  0.95903092  0.86050722    -0.71700
O1794       O  0.83015926  0.99583329  0.81107741    -0.75300
Al1795     Al  0.80610895  0.99102608  0.84974320     1.49000
C1796       C  0.83266078  0.98269188  0.78253736     0.92100
O1797       O  0.76824217  0.93958062  0.76684023    -0.81500
O1798       O  0.72762248  0.95554955  0.82399225    -0.75000
Al1799     Al  0.77627537  0.97679959  0.77983018     1.90100
O1800       O  0.77017202  0.91890845  0.81732077    -0.74100
O1801       O  0.74986644  0.97189472  0.88270769    -0.74000
O1802       O  0.79181836  0.93386077  0.87615288    -0.79600
O1803       O  0.78827255  0.48657125  0.89454012    -0.77800
O1804       O  0.78119111  0.97149770  0.82586154    -1.13900
O1805       O  0.78634392  0.52167968  0.84122846    -0.73100
C1806       C  0.77950104  0.52977523  0.81079338     0.97600
C1807       C  0.76905799  0.91798397  0.78439062     0.94000
Al1808     Al  0.76150692  0.94713020  0.84816474     1.55600
O1809       O  0.81309756  0.96925130  0.76945136    -0.77800
C1810       C  0.76494182  0.98488198  0.90384269     0.98100
C1811       C  0.72145727  0.97381552  0.80201178     0.93000
O1812       O  0.73957637  0.98541429  0.78480462    -0.83100
O1813       O  0.99028723  0.71857129  0.22403049    -0.82500
C1814       C  0.56804480  0.68031082  0.13322407     0.96800
O1815       O  0.54614902  0.67183913  0.14612373    -0.71700
O1816       O  0.51025248  0.66929970  0.19584823    -0.75300
Al1817     Al  0.51478748  0.69226968  0.15637232     1.49000
C1818       C  0.52323788  0.66743353  0.22456425     0.92100
O1819       O  0.56632193  0.73187523  0.23729922    -0.81500
O1820       O  0.54996401  0.77169683  0.17688524    -0.75000
Al1821     Al  0.52940032  0.72391782  0.22446462     1.90100
O1822       O  0.58716538  0.72991089  0.18711996    -0.74100
O1823       O  0.53462150  0.74701597  0.11828596    -0.74000
O1824       O  0.57235856  0.70561165  0.12959848    -0.79600
O1825       O  0.01106889  0.70538511  0.11258787    -0.77800
O1826       O  0.53454390  0.71790226  0.17858473    -1.13900
O1827       O  0.97968761  0.71042800  0.16815894    -0.73100
C1828       C  0.97326264  0.71887836  0.19855129     0.97600
C1829       C  0.58788732  0.73107316  0.22008384     0.94000
Al1830     Al  0.55892503  0.73698981  0.15501866     1.55600
O1831       O  0.53669557  0.68725066  0.23686821    -0.77800
C1832       C  0.52019765  0.73105859  0.09992523     0.98100
C1833       C  0.53257218  0.77835282  0.19967093     0.93000
O1834       O  0.52129888  0.76055607  0.21786219    -0.83100
O1835       O  0.76361674  0.51926067  0.21458531    -0.82500
C1836       C  0.67408177  0.55946430  0.13890016     0.96800
O1837       O  0.69820176  0.56788626  0.13536534    -0.71700
O1838       O  0.72165126  0.58438531  0.19333449    -0.75300
Al1839     Al  0.73174619  0.55835344  0.15903210     1.49000
C1840       C  0.72924781  0.58457980  0.22505955     0.92100
O1841       O  0.69089996  0.53027794  0.24177032    -0.81500
O1842       O  0.71897646  0.97739243  0.16919919    -0.75000
Al1843     Al  0.72729108  0.52511765  0.22665597     1.90100
O1844       O  0.67318375  0.50165895  0.20250123    -0.74100
O1845       O  0.70920127  0.50941046  0.11411913    -0.74000
O1846       O  0.66951583  0.53622192  0.15113091    -0.79600
O1847       O  0.74391142  0.53665714  0.12135831    -0.77800
O1848       O  0.71776153  0.53053946  0.18191329    -1.13900
O1849       O  0.76802758  0.55393617  0.17882885    -0.73100
C1850       C  0.77828612  0.53488448  0.19696621     0.97600
C1851       C  0.67141198  0.51549015  0.23076910     0.94000
Al1852     Al  0.69408145  0.50788434  0.16077372     1.55600
O1853       O  0.73483199  0.56247740  0.23996723    -0.77800
C1854       C  0.73085534  0.51966487  0.10281035     0.98100
C1855       C  0.72680110  0.96974664  0.19936906     0.93000
O1856       O  0.72584640  0.98593410  0.22535929    -0.83100
C1857       C  0.65080361  0.57754049  0.13066942    -0.06000
C1858       C  0.62408089  0.56822941  0.13526574    -0.05900
C1859       C  0.60215332  0.58616156  0.13321569    -0.24100
C1860       C  0.60650973  0.61380877  0.12680358     0.18100
C1861       C  0.63309907  0.62322045  0.12055979     0.15400
C1862       C  0.65504673  0.60499158  0.12222966    -0.19100
C1863       C  0.63741902  0.65095732  0.11450474    -0.20900
C1864       C  0.61587874  0.66940918  0.11652255    -0.13500
C1865       C  0.58958409  0.66043181  0.12443218     0.03200
C1866       C  0.58493539  0.63239228  0.12835715    -0.25600
H1867       H  0.62016208  0.54722031  0.14178169     0.08300
H1868       H  0.58188770  0.57857873  0.13796661     0.11900
H1869       H  0.67552133  0.61250599  0.11878700     0.11800
H1870       H  0.65764813  0.65854429  0.10956859     0.11500
H1871       H  0.62007946  0.69086869  0.11347410     0.12100
H1872       H  0.56478242  0.62512846  0.13446995     0.14000
C1873       C  0.75474684  0.99137926  0.93949701    -0.06000
C1874       C  0.72630925  0.48160981  0.94595337    -0.05900
C1875       C  0.71643125  0.48635193  0.97980487    -0.24100
C1876       C  0.73354457  0.49691314  0.00652100     0.18100
C1877       C  0.76122309  0.01058079  0.99863000     0.15400
C1878       C  0.77029662  0.00671319  0.96399249    -0.19100
C1879       C  0.77668856  0.02566962  0.02323127    -0.20900
C1880       C  0.76765965  0.02917776  0.05764379    -0.13500
C1881       C  0.74107162  0.51261575  0.06727222     0.03200
C1882       C  0.72387106  0.50150047  0.04081174    -0.25600
H1883       H  0.71264218  0.47310786  0.92605474     0.08300
H1884       H  0.69543099  0.48155876  0.98513713     0.11900
H1885       H  0.78957095  0.01526596  0.95630889     0.11800
H1886       H  0.79574859  0.03483098  0.01585683     0.11500
H1887       H  0.78001604  0.04115840  0.07591345     0.12100
H1888       H  0.70288014  0.49701836  0.04665539     0.14000
C1889       C  0.99534862  0.76803518  0.93982549    -0.06000
C1890       C  0.52639739  0.77938966  0.95075661    -0.05900
C1891       C  0.53512180  0.77426901  0.98528275    -0.24100
C1892       C  0.51865100  0.75939764  0.00784785     0.18100
C1893       C  0.98806655  0.74634908  0.99622728     0.15400
C1894       C  0.97948165  0.75175752  0.96162376    -0.19100
C1895       C  0.97240419  0.72992086  0.01792175    -0.20900
C1896       C  0.98122049  0.72446018  0.05224400    -0.13500
C1897       C  0.51058727  0.73873518  0.06460234     0.03200
C1898       C  0.52692995  0.75444555  0.04274534    -0.25600
H1899       H  0.53922375  0.79140025  0.93406834     0.08300
H1900       H  0.55458566  0.78215919  0.99442499     0.11900
H1901       H  0.96035751  0.74346597  0.95179188     0.11800
H1902       H  0.95349729  0.72107973  0.00823723     0.11500
H1903       H  0.96904561  0.71139110  0.06843607     0.12100
H1904       H  0.54636401  0.76201459  0.05252783     0.14000
C1905       C  0.91583746  0.84766373  0.87836716    -0.06000
C1906       C  0.92673655  0.87413985  0.87752027    -0.05900
C1907       C  0.90985517  0.89703361  0.87839373    -0.24100
C1908       C  0.88162606  0.89406267  0.88060876     0.18100
C1909       C  0.87045588  0.86766415  0.88327501     0.15400
C1910       C  0.88756161  0.84462626  0.88184058    -0.19100
C1911       C  0.84225510  0.86475649  0.88609899    -0.20900
C1912       C  0.82523656  0.88756031  0.88476181    -0.13500
C1913       C  0.83592766  0.91385515  0.88028158     0.03200
C1914       C  0.86435057  0.91694205  0.87894749    -0.25600
H1915       H  0.94834857  0.87719543  0.87450156     0.08300
H1916       H  0.91886392  0.91706350  0.87644653     0.11900
H1917       H  0.87881909  0.82439691  0.88247179     0.11800
H1918       H  0.83325945  0.84474911  0.88838558     0.11500
H1919       H  0.80349742  0.88439764  0.88564574     0.12100
H1920       H  0.87298937  0.93699295  0.87542029     0.14000
C1921       C  0.52167458  0.64174994  0.24334540    -0.06000
C1922       C  0.03787182  0.62480375  0.25297425    -0.05900
C1923       C  0.03213075  0.59987827  0.26838907    -0.24100
C1924       C  0.00613060  0.59483021  0.28137207     0.18100
C1925       C  0.49652377  0.61319102  0.28326596     0.15400
C1926       C  0.50391866  0.63916075  0.27164409    -0.19100
C1927       C  0.47714225  0.60994884  0.30965362    -0.20900
C1928       C  0.46793787  0.58389807  0.31833184    -0.13500
C1929       C  0.97246967  0.56321963  0.30252327     0.03200
C1930       C  0.99899711  0.56875481  0.29204749    -0.25600
H1931       H  0.05746045  0.62794309  0.24112365     0.08300
H1932       H  0.04749191  0.58413713  0.26857517     0.11900
H1933       H  0.49440177  0.65715589  0.28270313     0.11800
H1934       H  0.46852099  0.62755819  0.32276049     0.11500
H1935       H  0.45237026  0.58178151  0.33788519     0.12100
H1936       H  0.01353290  0.55233774  0.29026515     0.14000
C1937       C  0.98764101  0.89249183  0.26487550    -0.06000
C1938       C  0.97376528  0.87055067  0.27952288    -0.05900
C1939       C  0.97835090  0.84409874  0.26763608    -0.24100
C1940       C  0.99735722  0.83910384  0.24137039     0.18100
C1941       C  0.51299678  0.86146892  0.22593123     0.15400
C1942       C  0.50793382  0.88819511  0.23791505    -0.19100
C1943       C  0.53397629  0.85581603  0.20230074    -0.20900
C1944       C  0.54009280  0.82885081  0.19274265    -0.13500
C1945       C  0.52516097  0.80717498  0.20645283     0.03200
C1946       C  0.00347937  0.81240275  0.23149060    -0.25600
H1947       H  0.95966659  0.87387352  0.30070130     0.08300
H1948       H  0.96765635  0.82747310  0.27976618     0.11900
H1949       H  0.52024629  0.90490462  0.22882149     0.11800
H1950       H  0.54613016  0.87217581  0.19199576     0.11500
H1951       H  0.55689461  0.82492834  0.17539921     0.12100
H1952       H  0.99290377  0.79589106  0.24405407     0.14000
C1953       C  0.64604647  0.51409874  0.25040957    -0.06000
C1954       C  0.62744121  0.03324933  0.23721862    -0.05900
C1955       C  0.60078251  0.03053597  0.24838645    -0.24100
C1956       C  0.59401416  0.00991778  0.27183268     0.18100
C1957       C  0.61133847  0.48664417  0.27792878     0.15400
C1958       C  0.63745878  0.48920599  0.26407810    -0.19100
C1959       C  0.60248273  0.46173646  0.29124444    -0.20900
C1960       C  0.57576912  0.45876158  0.30244105    -0.13500
C1961       C  0.55955953  0.98351701  0.30168803     0.03200
C1962       C  0.56682684  0.00524965  0.28003730    -0.25600
H1963       H  0.63205744  0.04832088  0.21761950     0.08300
H1964       H  0.58527246  0.04380501  0.23754129     0.11900
H1965       H  0.65085247  0.47171390  0.26298919     0.11800
H1966       H  0.61600771  0.44436717  0.29217071     0.11500
H1967       H  0.56910630  0.43905589  0.31139827     0.12100
H1968       H  0.55120504  0.01794037  0.26832706     0.14000
C1969       C  0.89804215  0.98958971  0.24137228    -0.06000
C1970       C  0.88108785  0.46858304  0.22750915    -0.05900
C1971       C  0.85567333  0.47328032  0.21169082    -0.24100
C1972       C  0.84542760  0.49989788  0.20944738     0.18100
C1973       C  0.86184003  0.52214463  0.22040498     0.15400
C1974       C  0.88914541  0.01647147  0.23674713    -0.19100
C1975       C  0.85178298  0.54878232  0.21774819    -0.20900
C1976       C  0.82486104  0.55322069  0.20709317    -0.13500
C1977       C  0.80778752  0.53106548  0.19928426     0.03200
C1978       C  0.81842870  0.50454404  0.19898506    -0.25600
H1979       H  0.88796472  0.44787483  0.23126848     0.08300
H1980       H  0.84343485  0.45605290  0.20300947     0.11900
H1981       H  0.90124868  0.03318820  0.24744077     0.11800
H1982       H  0.86425821  0.56604056  0.22569958     0.11500
H1983       H  0.81685070  0.57374881  0.20743467     0.12100
H1984       H  0.80519656  0.48744669  0.19266480     0.14000
C1985       C  0.91478503  0.91304677  0.36685140    -0.06000
C1986       C  0.92751232  0.88739135  0.36755457    -0.05900
C1987       C  0.91238766  0.86358276  0.37084938    -0.24100
C1988       C  0.88418986  0.86487535  0.37431296     0.18100
C1989       C  0.87123261  0.89059276  0.37536850     0.15400
C1990       C  0.88654997  0.91454257  0.37110095    -0.19100
C1991       C  0.84309533  0.89180041  0.37983223    -0.20900
C1992       C  0.82783197  0.86787593  0.38160614    -0.13500
C1993       C  0.84029599  0.84216946  0.37852128     0.03200
C1994       C  0.86867342  0.84087635  0.37564962    -0.25600
H1995       H  0.94924750  0.88562697  0.36433341     0.08300
H1996       H  0.92273895  0.84412351  0.37017424     0.11900
H1997       H  0.87656090  0.93419979  0.37087730     0.11800
H1998       H  0.83276388  0.91125057  0.38103421     0.11500
H1999       H  0.80599469  0.86958278  0.38361982     0.12100
H2000       H  0.87858987  0.82125355  0.37325693     0.14000
C2001       C  0.73681523  0.94185145  0.20581750    -0.06000
C2002       C  0.72624796  0.91919504  0.18733036    -0.05900
C2003       C  0.73290817  0.89274363  0.19804676    -0.24100
C2004       C  0.75017762  0.88866533  0.22740976     0.18100
C2005       C  0.76198817  0.91147412  0.24480810     0.15400
C2006       C  0.75547795  0.93775209  0.23367219    -0.19100
C2007       C  0.77896587  0.90778018  0.27434127    -0.20900
C2008       C  0.78281877  0.88186567  0.28803566    -0.13500
C2009       C  0.77034701  0.85911071  0.27196412     0.03200
C2010       C  0.75483388  0.86243507  0.24081153    -0.25600
H2011       H  0.71186259  0.92193480  0.16577757     0.08300
H2012       H  0.72373801  0.87553443  0.18425070     0.11900
H2013       H  0.76404109  0.95516202  0.24778621     0.11800
H2014       H  0.78835792  0.92506484  0.28773659     0.11500
H2015       H  0.79514413  0.87962708  0.31173165     0.12100
H2016       H  0.74512656  0.84491460  0.22834291     0.14000
C2017       C  0.77750039  0.69224890  0.30604660    -0.06000
C2018       C  0.78694319  0.66919808  0.32395275    -0.05900
C2019       C  0.77774956  0.64309227  0.31373421    -0.24100
C2020       C  0.75882265  0.63979670  0.28572955     0.18100
C2021       C  0.74826190  0.66314216  0.26909695     0.15400
C2022       C  0.75756801  0.68897012  0.27937170    -0.19100
C2023       C  0.72933490  0.66038353  0.24135370    -0.20900
C2024       C  0.72206847  0.63465977  0.22859064    -0.13500
C2025       C  0.73335841  0.61110881  0.24346552     0.03200
C2026       C  0.75109610  0.61376250  0.27295686    -0.25600
H2027       H  0.80211315  0.67127697  0.34480049     0.08300
H2028       H  0.78596433  0.62548164  0.32706213     0.11900
H2029       H  0.74973757  0.70665591  0.26579095     0.11800
H2030       H  0.72089795  0.67816978  0.22862339     0.11500
H2031       H  0.70826729  0.63323398  0.20611126     0.12100
H2032       H  0.76004522  0.59576725  0.28457432     0.14000
C2033       C  0.86468720  0.76970733  0.26641311    -0.06000
C2034       C  0.88766074  0.77881400  0.28538983    -0.05900
C2035       C  0.91356255  0.77257302  0.27375123    -0.24100
C2036       C  0.91676241  0.75647767  0.24344569     0.18100
C2037       C  0.89378353  0.74827519  0.22310609     0.15400
C2038       C  0.86769102  0.75532560  0.23455038    -0.19100
C2039       C  0.89736311  0.73187676  0.19296037    -0.20900
C2040       C  0.92333172  0.72268166  0.18407578    -0.13500
C2041       C  0.94593007  0.72970382  0.20534755     0.03200
C2042       C  0.94252516  0.74730520  0.23431709    -0.25600
H2043       H  0.88547144  0.78961148  0.31023811     0.08300
H2044       H  0.93102795  0.77909082  0.28946132     0.11900
H2045       H  0.84984926  0.74781143  0.22037835     0.11800
H2046       H  0.88003564  0.72551369  0.17691197     0.11500
H2047       H  0.92563351  0.70943600  0.16132503     0.12100
H2048       H  0.95994513  0.75335625  0.25046160     0.14000
C2049       C  0.61457662  0.73224061  0.23793869    -0.06000
C2050       C  0.63675446  0.71963797  0.22176251    -0.05900
C2051       C  0.66297740  0.72373788  0.23487062    -0.24100
C2052       C  0.66749445  0.74101710  0.26393851     0.18100
C2053       C  0.64533818  0.75305700  0.28138645     0.15400
C2054       C  0.61878494  0.74816051  0.26859633    -0.19100
C2055       C  0.65034464  0.77080791  0.31008746    -0.20900
C2056       C  0.67707501  0.77755133  0.32017363    -0.13500
C2057       C  0.69908237  0.76637395  0.30192253     0.03200
C2058       C  0.69398624  0.74741993  0.27458839    -0.25600
H2059       H  0.63383631  0.70715180  0.19826891     0.08300
H2060       H  0.67980827  0.71430029  0.22137584     0.11900
H2061       H  0.60170763  0.75809077  0.28097015     0.11800
H2062       H  0.63364200  0.78015799  0.32391750     0.11500
H2063       H  0.68049566  0.79200562  0.34155308     0.12100
H2064       H  0.71067819  0.73841348  0.26035415     0.14000
C2065       C  0.73401338  0.74265298  0.56815029    -0.06000
C2066       C  0.71539539  0.75945501  0.55014589    -0.05900
C2067       C  0.71986778  0.76714761  0.51549227    -0.24100
C2068       C  0.74302660  0.75814397  0.49799530     0.18100
C2069       C  0.76201975  0.74141457  0.51585882     0.15400
C2070       C  0.75746404  0.73385079  0.55084034    -0.19100
C2071       C  0.78519230  0.73244265  0.49834555    -0.20900
C2072       C  0.78966854  0.74017886  0.46368555    -0.13500
C2073       C  0.77101580  0.75695190  0.44568753     0.03200
C2074       C  0.74756206  0.76570404  0.46301986    -0.25600
H2075       H  0.69714182  0.76656369  0.56280647     0.08300
H2076       H  0.70511299  0.78002615  0.50232113     0.11900
H2077       H  0.77189030  0.72077160  0.56431130     0.11800
H2078       H  0.79995656  0.71957043  0.51151090     0.11500
H2079       H  0.80792764  0.73311494  0.45100069     0.12100
H2080       H  0.73311304  0.77876948  0.44956742     0.14000
C2081       C  0.55794000  0.78128778  0.79521972    -0.06000
C2082       C  0.57885205  0.80054686  0.79884894    -0.05900
C2083       C  0.60536473  0.79367807  0.78969446    -0.24100
C2084       C  0.61127807  0.76737402  0.77720629     0.18100
C2085       C  0.59054116  0.74750278  0.77508430     0.15400
C2086       C  0.56401726  0.75463510  0.78399155    -0.19100
C2087       C  0.59646523  0.72114603  0.76272685    -0.20900
C2088       C  0.62242965  0.71496194  0.75072374    -0.13500
C2089       C  0.64262087  0.73501147  0.75120147     0.03200
C2090       C  0.63722883  0.76094863  0.76519918    -0.25600
H2091       H  0.57451046  0.82113491  0.80757267     0.08300
H2092       H  0.62109061  0.80907785  0.79158902     0.11900
H2093       H  0.54797765  0.73955598  0.78160850     0.11800
H2094       H  0.58076465  0.70570569  0.76099815     0.11500
H2095       H  0.62631292  0.69509272  0.73919718     0.12100
H2096       H  0.65285723  0.77650501  0.76488578     0.14000
C2097       C  0.89123677  0.77436896  0.76201991    -0.06000
C2098       C  0.87011500  0.79226199  0.77028788    -0.05900
C2099       C  0.84377714  0.78702811  0.75778900    -0.24100
C2100       C  0.83830105  0.76351900  0.73751677     0.18100
C2101       C  0.85975440  0.74591235  0.72809800     0.15400
C2102       C  0.88619734  0.75158418  0.74031444    -0.19100
C2103       C  0.85414037  0.72227416  0.70815056    -0.20900
C2104       C  0.82734953  0.71550376  0.69887281    -0.13500
C2105       C  0.80585208  0.73225407  0.70952300     0.03200
C2106       C  0.81158632  0.75663904  0.72799445    -0.25600
H2107       H  0.87381821  0.80956500  0.78768244     0.08300
H2108       H  0.82752234  0.80069644  0.76523006     0.11900
H2109       H  0.90257246  0.73749965  0.73471466     0.11800
H2110       H  0.87037756  0.70861892  0.70064428     0.11500
H2111       H  0.82336506  0.69669432  0.68454235     0.12100
H2112       H  0.79514668  0.76990433  0.73596030     0.14000
C2113       C  0.73380545  0.64042856  0.74119792    -0.06000
C2114       C  0.72197489  0.61763372  0.72439159    -0.05900
C2115       C  0.72646512  0.59162707  0.73731584    -0.24100
C2116       C  0.74337586  0.58791016  0.76685122     0.18100
C2117       C  0.75430685  0.61070640  0.78524469     0.15400
C2118       C  0.74905296  0.63702789  0.77255690    -0.19100
C2119       C  0.77139312  0.60653796  0.81476768    -0.20900
C2120       C  0.77883082  0.58007580  0.82455983    -0.13500
C2121       C  0.76925886  0.55757132  0.80488982     0.03200
C2122       C  0.75070061  0.56166602  0.77699259    -0.25600
H2123       H  0.70982646  0.61990589  0.70054836     0.08300
H2124       H  0.71769839  0.57431668  0.72324845     0.11900
H2125       H  0.75822695  0.65458001  0.78564462     0.11800
H2126       H  0.77981605  0.62372376  0.82941415     0.11500
H2127       H  0.79297067  0.57726201  0.84635966     0.12100
H2128       H  0.74276186  0.54431068  0.76213916     0.14000
C2129       C  0.72737950  0.80738826  0.70711794    -0.06000
C2130       C  0.72001567  0.82935982  0.68572048    -0.05900
C2131       C  0.72893110  0.85575616  0.69447517    -0.24100
C2132       C  0.74544740  0.86036683  0.72453980     0.18100
C2133       C  0.75402059  0.83797131  0.74490045     0.15400
C2134       C  0.74502575  0.81183700  0.73603077    -0.19100
C2135       C  0.77053634  0.84207851  0.77480208    -0.20900
C2136       C  0.77697581  0.86834236  0.78602443    -0.17500
C2137       C  0.76723026  0.89095743  0.76738461     0.03200
C2138       C  0.75243234  0.88690159  0.73573928    -0.25600
H2139       H  0.70672049  0.82625310  0.66301850     0.08300
H2140       H  0.72232178  0.87261045  0.67833783     0.11900
H2141       H  0.75133943  0.79491290  0.75230484     0.11800
H2142       H  0.77750161  0.82503022  0.79038335     0.11500
H2143       H  0.78864221  0.87102384  0.81028340     0.12100
H2144       H  0.74476408  0.90427485  0.72134675     0.14000
C2145       C  0.51403573  0.50898384  0.56675326    -0.06000
C2146       C  0.03096944  0.98929069  0.54669574    -0.05900
C2147       C  0.02739538  0.98200669  0.51133890    -0.24100
C2148       C  0.00619968  0.99333246  0.49140398     0.18100
C2149       C  0.49076247  0.51439303  0.51016545     0.15400
C2150       C  0.49428542  0.52189017  0.54576515    -0.19100
C2151       C  0.47156590  0.52765930  0.48886132    -0.20900
C2152       C  0.46796705  0.51987722  0.45360771    -0.13500
C2153       C  0.98151470  0.99758980  0.43566854     0.03200
C2154       C  0.00299699  0.98658217  0.45558757    -0.25600
H2155       H  0.04788754  0.98059074  0.56125650     0.08300
H2156       H  0.04146073  0.96779036  0.49946655     0.11900
H2157       H  0.48231029  0.53832520  0.55680666     0.11800
H2158       H  0.45913280  0.54386843  0.49954373     0.11500
H2159       H  0.45265259  0.53015514  0.43787782     0.12100
H2160       H  0.01686149  0.97228530  0.44343838     0.14000
C2161       C  0.58290539  0.59484304  0.62991517    -0.06000
C2162       C  0.57171283  0.62115620  0.63075584    -0.05900
C2163       C  0.58841364  0.64408736  0.62985716    -0.24100
C2164       C  0.61660709  0.64112310  0.62750276     0.18100
C2165       C  0.62790719  0.61478619  0.62400614     0.15400
C2166       C  0.61100906  0.59178555  0.62544273    -0.19100
C2167       C  0.65605793  0.61188944  0.62086891    -0.20900
C2168       C  0.67297438  0.63468079  0.62338985    -0.13500
C2169       C  0.66208224  0.66078857  0.62929180     0.03200
C2170       C  0.63374162  0.66393585  0.63020951    -0.25600
H2171       H  0.55010998  0.62404980  0.63404463     0.08300
H2172       H  0.57934962  0.66410199  0.63220672     0.11900
H2173       H  0.61981535  0.57157826  0.62446908     0.11800
H2174       H  0.66508087  0.59191479  0.61776845     0.11500
H2175       H  0.69473291  0.63163770  0.62250455     0.12100
H2176       H  0.62506542  0.68395418  0.63448421     0.14000
C2177       C  0.60717426  0.52102811  0.75241722    -0.06000
C2178       C  0.62483326  0.54225209  0.76214294    -0.05900
C2179       C  0.65555786  0.03670272  0.74793773    -0.24100
C2180       C  0.66070176  0.01350158  0.76816012     0.18100
C2181       C  0.63891565  0.99683068  0.77840783     0.15400
C2182       C  0.61435558  0.49398833  0.75938214    -0.19100
C2183       C  0.64427570  0.97355196  0.79847423    -0.20900
C2184       C  0.67107059  0.96626806  0.80710296    -0.13500
C2185       C  0.69288039  0.98210449  0.79567775     0.03200
C2186       C  0.68739392  0.00609503  0.77695000    -0.25600
H2187       H  0.61945971  0.56316341  0.75664891     0.08300
H2188       H  0.67208070  0.04965529  0.73986558     0.11900
H2189       H  0.60051634  0.47765243  0.75186916     0.11800
H2190       H  0.62780357  0.96061963  0.80672197     0.11500
H2191       H  0.67475782  0.94787599  0.82183325     0.12100
H2192       H  0.70397609  0.01877825  0.76841109     0.14000
C2193       C  0.94031111  0.52628993  0.70399185    -0.06000
C2194       C  0.91985294  0.54602740  0.70087584    -0.05900
C2195       C  0.89386176  0.54100430  0.71372548    -0.24100
C2196       C  0.88791607  0.51606099  0.72953956     0.18100
C2197       C  0.90795755  0.49548737  0.73081056     0.15400
C2198       C  0.93398339  0.50077572  0.71812523    -0.19100
C2199       C  0.90694937  0.97356230  0.76642777    -0.20900
C2200       C  0.88089802  0.96947636  0.77916504    -0.13500
C2201       C  0.85877952  0.98363734  0.76477563     0.03200
C2202       C  0.86267076  0.51160914  0.74518916    -0.25600
H2203       H  0.92436843  0.56583493  0.69025123     0.08300
H2204       H  0.87867482  0.55691851  0.71228052     0.11900
H2205       H  0.94964261  0.48534854  0.72036807     0.11800
H2206       H  0.92385649  0.96281875  0.77846369     0.11500
H2207       H  0.87808093  0.95589097  0.80105575     0.12100
H2208       H  0.84750447  0.52760568  0.74542985     0.14000
C2209       C  0.51297081  0.61715197  0.73650574    -0.06000
C2210       C  0.02174578  0.63983675  0.71804018    -0.05900
C2211       C  0.01688140  0.66570876  0.73181296    -0.24100
C2212       C  0.00127229  0.66890749  0.76202468     0.18100
C2213       C  0.49502328  0.64814530  0.78106044     0.15400
C2214       C  0.50073876  0.62148354  0.76932425    -0.19100
C2215       C  0.48115309  0.65301196  0.81257124    -0.20900
C2216       C  0.96829938  0.67581521  0.82113891    -0.13500
C2217       C  0.97688914  0.69858694  0.80242611     0.03200
C2218       C  0.99414739  0.69490340  0.77369892    -0.25600
H2219       H  0.03304333  0.63790427  0.69392501     0.08300
H2220       H  0.02451216  0.68327179  0.71810966     0.11900
H2221       H  0.49435573  0.60422331  0.78461615     0.11800
H2222       H  0.47543587  0.63623926  0.82911535     0.11500
H2223       H  0.46245150  0.68287380  0.84625794     0.12100
H2224       H  0.00132557  0.71242826  0.75946241     0.14000
C2225       C  0.51957681  0.95101210  0.70478022    -0.06000
C2226       C  0.52490850  0.92841050  0.68300888    -0.05900
C2227       C  0.51590919  0.90244648  0.69243060    -0.24100
C2228       C  0.50142268  0.89891254  0.72362110     0.18100
C2229       C  0.49476861  0.92195056  0.74435854     0.15400
C2230       C  0.50367491  0.94765348  0.73470667    -0.19100
C2231       C  0.48034208  0.91892902  0.77542052    -0.20900
C2232       C  0.97316026  0.88760872  0.78079481    -0.13500
C2233       C  0.98436463  0.86434285  0.76492127     0.03200
C2234       C  0.00034707  0.86700873  0.73478264    -0.25600
H2235       H  0.53670684  0.93068047  0.65944169     0.08300
H2236       H  0.52096649  0.88508787  0.67595939     0.11900
H2237       H  0.49875989  0.96506690  0.75122112     0.11800
H2238       H  0.47486639  0.93649340  0.79131625     0.11500
H2239       H  0.96058309  0.88594428  0.80378886     0.12100
H2240       H  0.00914089  0.84910086  0.72254336     0.14000
loop_ 
_geom_bond_atom_site_label_1 
_geom_bond_atom_site_label_2 
_geom_bond_distance 
_geom_bond_site_symmetry_2 
_ccdc_geom_bond_type 
O1           C16   1.269       .  A
O1         Al569   1.913       .  S
C2           O12   1.273       .  A
C2            O3   1.269       .  A
C2          C481   1.481       .  S
O3           Al5   1.897       .  S
O4            C6   1.256       .  A
O4           Al5   1.904       .  S
Al5         O573   1.889       .  S
Al5         O575   1.910   1_545  S
Al5          O14   1.789       .  S
C6           O19   1.258       .  A
C6          C497   1.463       .  S
O7           C17   1.258       .  A
O7           Al9   1.915       .  S
O8           C21   1.265       .  A
O8        Al1138   1.927       .  S
Al9          O19   1.912       .  S
Al9         O561   1.910   1_545  S
Al9        O1142   1.869   1_455  S
Al9          O14   1.784       .  S
O10          C17   1.255       .  A
O10         Al18   1.881       .  S
O11          C20   1.256       .  A
O11         Al18   1.906       .  S
O12         Al18   1.930       .  S
O13         C580   1.254       .  A
O13        Al565   1.888       .  S
O14         Al18   1.782       .  S
O15          C16   1.269       .  A
O15        Al565   1.914       .  S
C16         C545   1.477       .  S
C17         C529   1.475       .  S
Al18       O1128   1.932   1_455  S
C20         O573   1.253       .  A
C20         C465   1.478       .  S
C21          O22   1.257       .  A
C21         C513   1.484       .  S
O22       Al1129   1.869       .  S
O23          C38   1.268       .  A
O23         Al31   1.913       .  S
C24          O34   1.272       .  A
C24          O25   1.269       .  A
C24         C489   1.482       .  S
O25         Al27   1.898       .  S
O26          C28   1.257       .  A
O26         Al27   1.905       .  S
Al27         O35   1.893       .  S
Al27         O37   1.914       .  S
Al27         O36   1.788       .  S
C28          O41   1.258       .  A
C28         C409   1.463       .  S
O29          C39   1.258       .  A
O29         Al31   1.916       .  S
O30          C43   1.266       .  A
O30         Al40   1.928       .  S
Al31         O44   1.869       .  S
Al31         O41   1.910       .  S
Al31         O36   1.785       .  S
O32          C39   1.256       .  A
O32         Al40   1.881       .  S
O33          C42   1.256       .  A
O33         Al40   1.905       .  S
O34         Al40   1.929       .  S
O35          C42   1.254       .  A
O36         Al40   1.782       .  S
O37          C38   1.268       .  A
C38         C449   1.477       .  S
C39         C433   1.476       .  S
C42         C385   1.480       .  S
C43          O44   1.257       .  A
C43         C425   1.478       .  S
O45          C60   1.255       .  A
O45         Al53   1.863       .  S
C46          O56   1.271       .  A
C46          O47   1.272       .  A
C46         C313   1.478       .  S
O47         Al49   1.923       .  S
O48          C50   1.255       .  A
O48         Al49   1.869       .  S
Al49         O57   1.901       .  S
Al49         O59   1.911       .  S
Al49         O58   1.782       .  S
C50          O63   1.259       .  A
C50         C329   1.477       .  S
O51          C61   1.253       .  A
O51         Al53   1.902       .  S
O52          C65   1.272       .  A
O52         Al62   1.916       .  S
Al53         O66   1.916       .  S
Al53         O63   1.912       .  S
Al53         O58   1.787       .  S
O54          C61   1.253       .  A
O54         Al62   1.895       .  S
O55          C64   1.252       .  A
O55         Al62   1.897       .  S
O56         Al62   1.904       .  S
O57          C64   1.254       .  A
O58         Al62   1.789       .  S
O59          C60   1.261       .  A
C60         C377   1.475       .  S
C61         C353   1.461       .  S
C64         C393   1.480       .  S
C65          O66   1.272       .  A
C65         C337   1.479       .  S
O67          C82   1.254       .  A
O67       Al1195   1.877   1_455  S
C68          O78   1.270       .  A
C68          O69   1.268       .  A
C68         C305   1.482       .  S
O69         Al71   1.914       .  S
O70          C72   1.257       .  A
O70         Al71   1.891       .  S
Al71       O1199   1.909       .  S
Al71       O1201   1.925       .  S
Al71         O80   1.779       .  S
C72          O85   1.260       .  A
C72         C257   1.468       .  S
O73          C83   1.261       .  A
O73         Al75   1.919       .  S
O74          C87   1.268       .  A
O74        Al644   1.905   1_545  S
Al75         O85   1.916       .  S
Al75       O1187   1.886       .  S
Al75        O648   1.907       .  S
Al75         O80   1.780       .  S
O76          C83   1.258       .  A
O76         Al84   1.907       .  S
O77          C86   1.258       .  A
O77         Al84   1.900       .  S
O78         Al84   1.915       .  S
O79        C1206   1.261       .  A
O79       Al1191   1.903       .  S
O80         Al84   1.784       .  S
O81          C82   1.262       .  A
O81       Al1191   1.919   1_455  S
C82         C281   1.471       .  S
C83         C289   1.468       .  S
Al84        O634   1.915       .  S
C86        O1199   1.261       .  A
C86         C473   1.478       .  S
C87          O88   1.270       .  A
C87         C249   1.471       .  S
O88        Al635   1.912   1_545  S
O89         C104   1.265       .  A
O89         Al97   1.905       .  S
C90         O100   1.271       .  A
C90          O91   1.266       .  A
C90         C225   1.488       .  S
O91         Al93   1.898       .  S
O92          C94   1.264       .  A
O92         Al93   1.922       .  S
Al93        O101   1.923       .  S
Al93        O103   1.922       .  S
Al93        O102   1.784       .  S
C94         O107   1.259       .  A
C94         C417   1.461       .  S
O95         C105   1.258       .  A
O95         Al97   1.915       .  S
O96         C109   1.265       .  A
O96       Al1226   1.925   1_455  S
Al97        O107   1.898       .  S
Al97       O1230   1.867       .  S
Al97        O102   1.782       .  S
O98         C105   1.252       .  A
O98        Al106   1.867       .  S
O99         C108   1.253       .  A
O99        Al106   1.878       .  S
O100       Al106   1.936       .  S
O101        C108   1.260       .  A
O102       Al106   1.774       .  S
O103        C104   1.268       .  A
C104        C537   1.480       .  S
C105        C553   1.468       .  S
Al106      O1216   1.947       .  S
C108        C209   1.480       .  S
C109        O110   1.258       .  A
C109        C401   1.476       .  S
O110      Al1217   1.879   1_455  S
O111        C126   1.262       .  A
O111       Al679   1.894   1_545  S
C112        O122   1.267       .  A
C112        O113   1.266       .  A
C112        C233   1.485       .  S
O113       Al115   1.908       .  S
O114        C116   1.261       .  A
O114       Al115   1.906       .  S
Al115       O683   1.915       .  S
Al115       O685   1.928       .  S
Al115       O124   1.785       .  S
C116        O129   1.262       .  A
C116        C521   1.471       .  S
O117        C127   1.263       .  A
O117       Al119   1.937       .  S
O118        C131   1.264       .  A
O118       Al128   1.922       .  S
Al119       O132   1.883       .  S
Al119       O129   1.912       .  S
Al119       O671   1.907       .  S
Al119       O124   1.786       .  S
O120        C127   1.254       .  A
O120       Al128   1.866       .  S
O121        C130   1.256       .  A
O121       Al128   1.891       .  S
O122       Al128   1.922       .  S
O123        C690   1.262       .  A
O123       Al675   1.919       .  S
O124       Al128   1.780       .  S
O125        C126   1.267       .  A
O125       Al675   1.928   1_545  S
C126        C441   1.477       .  S
C127        C457   1.476       .  S
C130        O683   1.260       .  A
C130        C193   1.481       .  S
C131        O132   1.257       .  A
C131        C505   1.472       .  S
O133        C148   1.267       .  A
O133      Al1261   1.910       .  S
C134        O144   1.271       .  A
C134        O135   1.266       .  A
C134        C185   1.483       .  S
O135       Al137   1.892       .  S
O136        C138   1.257       .  A
O136       Al137   1.901       .  S
Al137      O1265   1.900       .  S
Al137      O1267   1.908   1_455  S
Al137       O146   1.788       .  S
C138        O151   1.257       .  A
C138        C241   1.465       .  S
O139        C149   1.257       .  A
O139       Al141   1.903       .  S
O140        C153   1.267       .  A
O140       Al150   1.939       .  S
Al141       O154   1.868       .  S
Al141       O151   1.909       .  S
Al141      O1253   1.907   1_455  S
Al141       O146   1.788       .  S
O142        C149   1.252       .  A
O142       Al150   1.870       .  S
O143        C152   1.255       .  A
O143       Al150   1.897       .  S
O144       Al150   1.931       .  S
O145       C1272   1.257       .  A
O145      Al1257   1.899       .  S
O146       Al150   1.787       .  S
O147        C148   1.266       .  A
O147      Al1257   1.907       .  S
C148        C361   1.473       .  S
C149        C369   1.466       .  S
C152       O1265   1.255       .  A
C152        C217   1.478       .  S
C153        O154   1.258       .  A
C153        C265   1.487       .  S
O155        C170   1.259       .  A
O155       Al163   1.866       .  S
C156        O166   1.261       .  A
C156        O157   1.270       .  A
C156        C177   1.484       .  S
O157       Al159   1.935       .  S
O158        C160   1.252       .  A
O158       Al159   1.877       .  S
Al159       O167   1.877       .  S
Al159       O169   1.951       .  S
Al159       O168   1.775       .  S
C160        O173   1.259       .  A
C160        C345   1.480       .  S
O161        C171   1.262       .  A
O161       Al163   1.899       .  S
O162        C175   1.264       .  A
O162       Al732   1.922       .  S
Al163       O173   1.931       .  S
Al163       O736   1.915   1_545  S
Al163       O168   1.781       .  S
O164        C171   1.266       .  A
O164       Al172   1.926       .  S
O165        C174   1.261       .  A
O165       Al172   1.924       .  S
O166       Al172   1.879       .  S
O167        C174   1.254       .  A
O168       Al172   1.785       .  S
O169        C170   1.272       .  A
C170        C297   1.475       .  S
C171        C273   1.460       .  S
Al172       O722   1.910   1_545  S
C174        C201   1.483       .  S
C175        O176   1.263       .  A
C175        C321   1.479       .  S
O176       Al723   1.902       .  S
C177        C178   1.408       .  A
C177        C182   1.408       .  A
C178        C179   1.395       .  A
C178        H187   1.083       .  S
C179        C180   1.400       .  A
C179        H188   1.084       .  S
C180        C186   1.404       .  A
C180        C181   1.414       .  A
C181        C183   1.403       .  A
C181        C182   1.408       .  A
C182        H189   1.084       .  S
C183        C184   1.399       .  A
C183        H190   1.083       .  S
C184        C185   1.407       .  A
C184        H191   1.083       .  S
C185        C186   1.406       .  A
C186        H192   1.084       .  S
C193        C198   1.406       .  A
C193        C754   1.407       .  A
C194        C195   1.399       .  A
C194        C753   1.408       .  A
C194        H203   1.083       .  S
C195        C196   1.402   1_556  A
C195        H204   1.084       .  S
C196        C202   1.407   1_565  A
C196        C757   1.414   1_564  A
C197        C199   1.401   1_556  A
C197        C198   1.402       .  A
C197        C756   1.414   1_556  A
C198        H205   1.084       .  S
C199        C200   1.396       .  A
C199        H206   1.084       .  S
C200        C761   1.406       .  A
C200        H207   1.083       .  S
C201        C202   1.407       .  A
C201        C760   1.408       .  A
C202        H208   1.084   1_545  S
C209        C214   1.406       .  A
C209       C1330   1.407       .  A
C210        C211   1.397       .  A
C210       C1329   1.406   1_455  A
C210        H219   1.083       .  S
C211        C212   1.401   1_556  A
C211        H220   1.083       .  S
C212        C218   1.405       .  A
C212       C1333   1.414   1_454  A
C213        C215   1.401   1_556  A
C213        C214   1.405       .  A
C213       C1332   1.415   1_556  A
C214        H221   1.084       .  S
C215        C216   1.397       .  A
C215        H222   1.084       .  S
C216       C1337   1.406       .  A
C216        H223   1.083       .  S
C217        C218   1.405       .  A
C217       C1336   1.406   1_455  A
C218        H224   1.084       .  S
C225        C226   1.408       .  A
C225        C230   1.408       .  A
C226        C227   1.400       .  A
C226        H235   1.083       .  S
C227        C228   1.402       .  A
C227        H236   1.084       .  S
C228        C234   1.409       .  A
C228        C229   1.414       .  A
C229        C231   1.401       .  A
C229        C230   1.407       .  A
C230        H237   1.084       .  S
C231        C232   1.397       .  A
C231        H238   1.084       .  S
C232        C233   1.408       .  A
C232        H239   1.083       .  S
C233        C234   1.407       .  A
C234        H240   1.084       .  S
C241        C246   1.406       .  A
C241       C1362   1.401       .  A
C242        C243   1.393       .  A
C242       C1361   1.400       .  A
C242        H251   1.084       .  S
C243        C244   1.402       .  A
C243        H252   1.084       .  S
C244        C250   1.396       .  A
C244       C1365   1.414       .  A
C245        C247   1.406       .  A
C245        C246   1.408   1_655  A
C245       C1364   1.414   1_655  A
C246        H253   1.084   1_455  S
C247        C248   1.403       .  A
C247        H254   1.083       .  S
C248       C1369   1.404       .  A
C248        H255   1.083       .  S
C249        C250   1.404       .  A
C249       C1368   1.403       .  A
C250        H256   1.084       .  S
C257        C258   1.401       .  A
C257       C1382   1.407       .  A
C258        C259   1.395       .  A
C258        H267   1.084       .  S
C259        C260   1.403       .  A
C259        H268   1.084       .  S
C260        C266   1.399       .  A
C260       C1381   1.413       .  A
C261        C263   1.408       .  A
C261        C262   1.413       .  A
C261       C1380   1.413   1_455  A
C262       C1377   1.410   1_455  A
C262        H269   1.084       .  S
C263        C264   1.407       .  A
C263        H270   1.083       .  S
C264        C265   1.407       .  A
C264        H271   1.083       .  S
C265       C1386   1.406       .  A
C266       C1385   1.408       .  A
C266        H272   1.084       .  S
C273        C278   1.401   1_545  A
C273        C834   1.401       .  A
C274        C275   1.397       .  A
C274        C833   1.400       .  A
C274        H283   1.084       .  S
C275        C276   1.404       .  A
C275        H284   1.082       .  S
C276        C282   1.401       .  A
C276        C837   1.414       .  A
C277        C279   1.403       .  A
C277        C278   1.402       .  A
C277        C836   1.415   1_565  A
C278        H285   1.085       .  S
C279        C280   1.398       .  A
C279        H286   1.084       .  S
C280        C841   1.403       .  A
C280        H287   1.083       .  S
C281        C282   1.405       .  A
C281        C840   1.402       .  A
C282        H288   1.081       .  S
C289        C294   1.405       .  A
C289        C850   1.401       .  A
C290        C291   1.398       .  A
C290        C849   1.400       .  A
C290        H299   1.083       .  S
C291        C292   1.405       .  A
C291        H300   1.084       .  S
C292        C298   1.400   1_565  A
C292        C293   1.413   1_565  A
C293        C295   1.406       .  A
C293        C854   1.404       .  A
C294        C853   1.402       .  A
C294        H301   1.085       .  S
C295        C296   1.401       .  A
C295        H302   1.083       .  S
C296        C297   1.402       .  A
C296        H303   1.083       .  S
C297        C298   1.408       .  A
C298        H304   1.085   1_545  S
C305        C306   1.409       .  A
C305        C310   1.405       .  A
C306        C307   1.395       .  A
C306        H315   1.083       .  S
C307        C308   1.398       .  A
C307        H316   1.084       .  S
C308        C314   1.406       .  A
C308        C309   1.416       .  A
C309        C311   1.400       .  A
C309        C310   1.407       .  A
C310        H317   1.084       .  S
C311        C312   1.396       .  A
C311        H318   1.084       .  S
C312        C313   1.407       .  A
C312        H319   1.081       .  S
C313        C314   1.402       .  A
C314        H320   1.085       .  S
C321        C322   1.405       .  A
C321        C326   1.403       .  A
C322        C323   1.407       .  A
C322        H331   1.083       .  S
C323        C324   1.408       .  A
C323        H332   1.083       .  S
C324        C330   1.410       .  A
C324        C325   1.412       .  A
C325        C327   1.396       .  A
C325        C326   1.391       .  A
C326        H333   1.085       .  S
C327        C328   1.386       .  A
C327        H334   1.084       .  S
C328        C329   1.405       .  A
C328        H335   1.080       .  S
C329        C330   1.411       .  A
C330        H336   1.084       .  S
C337        C338   1.404       .  A
C337        C342   1.405       .  A
C338        C339   1.405       .  A
C338        H347   1.083       .  S
C339        C340   1.408       .  A
C339        H348   1.083       .  S
C340        C346   1.410       .  A
C340        C341   1.413       .  A
C341        C343   1.399       .  A
C341        C342   1.398       .  A
C342        H349   1.083       .  S
C343        C344   1.392       .  A
C343        H350   1.083       .  S
C344        C345   1.406       .  A
C344        H351   1.084       .  S
C345        C346   1.410       .  A
C346        H352   1.083       .  S
C353        C354   1.400       .  A
C353        C358   1.404       .  A
C354        C355   1.392       .  A
C354        H363   1.084       .  S
C355        C356   1.401       .  A
C355        H364   1.084       .  S
C356        C362   1.396       .  A
C356        C357   1.414       .  A
C357        C359   1.406       .  A
C357        C358   1.406       .  A
C358        H365   1.085       .  S
C359        C360   1.402       .  A
C359        H366   1.084       .  S
C360        C361   1.403       .  A
C360        H367   1.083       .  S
C361        C362   1.404       .  A
C362        H368   1.085       .  S
C369        C370   1.403       .  A
C369        C374   1.404       .  A
C370        C371   1.391       .  A
C370        H379   1.084       .  S
C371        C372   1.400       .  A
C371        H380   1.084       .  S
C372        C378   1.395       .  A
C372        C373   1.413       .  A
C373        C375   1.404       .  A
C373        C374   1.403       .  A
C374        H381   1.084       .  S
C375        C376   1.400       .  A
C375        H382   1.083       .  S
C376        C377   1.404       .  A
C376        H383   1.083       .  S
C377        C378   1.405       .  A
C378        H384   1.083       .  S
C385        C386   1.408       .  A
C385        C390   1.405       .  A
C386        C387   1.394       .  A
C386        H395   1.083       .  S
C387        C388   1.399       .  A
C387        H396   1.084       .  S
C388        C394   1.403       .  A
C388        C389   1.415       .  A
C389        C391   1.400       .  A
C389        C390   1.406       .  A
C390        H397   1.085       .  S
C391        C392   1.397       .  A
C391        H398   1.084       .  S
C392        C393   1.408       .  A
C392        H399   1.083       .  S
C393        C394   1.404       .  A
C394        H400   1.085       .  S
C401        C402   1.403       .  A
C401        C406   1.408       .  A
C402        C403   1.398       .  A
C402        H411   1.083       .  S
C403        C404   1.403       .  A
C403        H412   1.084       .  S
C404        C410   1.402       .  A
C404        C405   1.414       .  A
C405        C407   1.405       .  A
C405        C406   1.402       .  A
C406        H413   1.084       .  S
C407        C408   1.399       .  A
C407        H414   1.084       .  S
C408        C409   1.400       .  A
C408        H415   1.083       .  S
C409        C410   1.403       .  A
C410        H416   1.085       .  S
C417        C418   1.400       .  A
C417        C422   1.403       .  A
C418        C419   1.396       .  A
C418        H427   1.083       .  S
C419        C420   1.404       .  A
C419        H428   1.084       .  S
C420        C426   1.398       .  A
C420        C421   1.413       .  A
C421        C423   1.404       .  A
C421        C422   1.403       .  A
C422        H429   1.085       .  S
C423        C424   1.400       .  A
C423        H430   1.084       .  S
C424        C425   1.404       .  A
C424        H431   1.083       .  S
C425        C426   1.407       .  A
C426        H432   1.084       .  S
C433        C434   1.403       .  A
C433        C438   1.411       .  A
C434        C435   1.391       .  A
C434        H443   1.084       .  S
C435        C436   1.399       .  A
C435        H444   1.084       .  S
C436        C442   1.395       .  A
C436        C437   1.413       .  A
C437        C439   1.410       .  A
C437        C438   1.411       .  A
C438        H445   1.084       .  S
C439        C440   1.407       .  A
C439        H446   1.083       .  S
C440        C441   1.403       .  A
C440        H447   1.083       .  S
C441        C442   1.404       .  A
C442        H448   1.085       .  S
C449        C450   1.404       .  A
C449        C454   1.403       .  A
C450        C451   1.406       .  A
C450        H459   1.083       .  S
C451        C452   1.408       .  A
C451        H460   1.084       .  S
C452        C458   1.411       .  A
C452        C453   1.414       .  A
C453        C455   1.398       .  A
C453        C454   1.395       .  A
C454        H461   1.085       .  S
C455        C456   1.389       .  A
C455        H462   1.084       .  S
C456        C457   1.405       .  A
C456        H463   1.084       .  S
C457        C458   1.409       .  A
C458        H464   1.084       .  S
C465        C470   1.405   1_455  A
C465       C2146   1.407   1_545  A
C466        C467   1.396       .  A
C466       C2145   1.406       .  A
C466        H475   1.083       .  S
C467        C468   1.400       .  A
C467        H476   1.084       .  S
C468        C474   1.405       .  A
C468       C2149   1.416       .  A
C469        C471   1.401       .  A
C469        C470   1.406       .  A
C469       C2148   1.415   1_645  A
C470        H477   1.084       .  S
C471        C472   1.398       .  A
C471        H478   1.084       .  S
C472       C2153   1.407   1_545  A
C472        H479   1.083       .  S
C473        C474   1.404       .  A
C473       C2152   1.407       .  A
C474        H480   1.085       .  S
C481        C482   1.407       .  A
C481        C486   1.406       .  A
C482        C483   1.397       .  A
C482        H491   1.083       .  S
C483        C484   1.401       .  A
C483        H492   1.084       .  S
C484        C490   1.405       .  A
C484        C485   1.414       .  A
C485        C487   1.401       .  A
C485        C486   1.406       .  A
C486        H493   1.084       .  S
C487        C488   1.398       .  A
C487        H494   1.084       .  S
C488        C489   1.407       .  A
C488        H495   1.083       .  S
C489        C490   1.406       .  A
C490        H496   1.084       .  S
C497        C498   1.400       .  A
C497        C502   1.404   1_545  A
C498       C1059   1.398       .  A
C498        H507   1.083       .  S
C499        C500   1.406       .  A
C499       C1058   1.401       .  A
C499        H508   1.084       .  S
C500        C506   1.404       .  A
C500        C501   1.414       .  A
C501        C503   1.402       .  A
C501       C1062   1.399       .  A
C502       C1061   1.402       .  A
C502        H509   1.085       .  S
C503        C504   1.396       .  A
C503        H510   1.084       .  S
C504        C505   1.402       .  A
C504        H511   1.083       .  S
C505        C506   1.408       .  A
C506        H512   1.085       .  S
C513        C514   1.406       .  A
C513        C518   1.407       .  A
C514        C515   1.404       .  A
C514        H523   1.083       .  S
C515        C516   1.406       .  A
C515        H524   1.083       .  S
C516        C522   1.409   1_545  A
C516        C517   1.413   1_545  A
C517        C518   1.398   1_565  A
C517       C1079   1.401       .  A
C518        H525   1.084   1_545  S
C519        C520   1.395       .  A
C519       C1077   1.402       .  A
C519        H526   1.084       .  S
C520        C521   1.402       .  A
C520        H527   1.084       .  S
C521       C1082   1.406       .  A
C522       C1081   1.407       .  A
C522        H528   1.084   1_565  S
C529        C534   1.410   1_455  A
C529       C1650   1.403       .  A
C530        C531   1.390       .  A
C530       C1649   1.404       .  A
C530        H539   1.083       .  S
C531        C532   1.399       .  A
C531        H540   1.084       .  S
C532        C538   1.395       .  A
C532       C1653   1.413       .  A
C533        C535   1.409       .  A
C533        C534   1.411       .  A
C533       C1652   1.413   1_655  A
C534        H541   1.084       .  S
C535       C1656   1.406       .  A
C535        H542   1.083       .  S
C536        C537   1.404       .  A
C536       C1655   1.405       .  A
C536       H1663   1.083       .  S
C537        C538   1.406       .  A
C538        H544   1.085       .  S
H543       C1656   1.083       .  S
C545        C546   1.404       .  A
C545        C550   1.404       .  A
C546        C547   1.405       .  A
C546        H555   1.083       .  S
C547        C548   1.407       .  A
C547        H556   1.083       .  S
C548        C549   1.414   1_455  A
C548       C1674   1.410   1_455  A
C549        C551   1.398       .  A
C549        C550   1.397   1_655  A
C550        H557   1.085   1_455  S
C551       C1672   1.391       .  A
C551        H558   1.084       .  S
C552        C553   1.404       .  A
C552       C1671   1.389       .  A
C552        H559   1.084       .  S
C553        C554   1.406       .  A
C554       C1668   1.404       .  A
C554        H560   1.084       .  S
O561        C576   1.269       .  A
C562        O572   1.272       .  A
C562        O563   1.269       .  A
C562       C1041   1.481       .  S
O563       Al565   1.902       .  S
O564        C566   1.256       .  A
O564       Al565   1.898       .  S
Al565       O574   1.786       .  S
C566        O579   1.259       .  A
C566       C1057   1.463       .  S
O567        C577   1.258       .  A
O567       Al569   1.910       .  S
O568        C581   1.267       .  A
O568      Al1698   1.930       .  S
Al569      O1702   1.874   1_455  S
Al569       O579   1.916       .  S
Al569       O574   1.782       .  S
O570        C577   1.255       .  A
O570       Al578   1.879       .  S
O571        C580   1.258       .  A
O571       Al578   1.909       .  S
O572       Al578   1.928       .  S
O574       Al578   1.782       .  S
O575        C576   1.268       .  A
C576       C1105   1.473       .  S
C577       C1089   1.473       .  S
Al578      O1688   1.934   1_455  S
C580       C1025   1.477       .  S
C581        O582   1.257       .  A
C581       C1073   1.486       .  S
O582      Al1689   1.873       .  S
O583        C598   1.272       .  A
O583       Al591   1.922       .  S
C584        O594   1.274       .  A
C584        O585   1.269       .  A
C584       C1049   1.482       .  S
O585       Al587   1.894       .  S
O586        C588   1.255       .  A
O586       Al587   1.906       .  S
Al587       O595   1.902       .  S
Al587       O597   1.905       .  S
Al587       O596   1.793       .  S
C588        O601   1.255       .  A
C588        C969   1.465       .  S
O589        C599   1.259       .  A
O589       Al591   1.921       .  S
O590        C603   1.266       .  A
O590       Al600   1.931       .  S
Al591       O604   1.867       .  S
Al591       O601   1.910       .  S
Al591       O596   1.785       .  S
O592        C599   1.256       .  A
O592       Al600   1.881       .  S
O593        C602   1.257       .  A
O593       Al600   1.910       .  S
O594       Al600   1.936       .  S
O595        C602   1.254       .  A
O596       Al600   1.781       .  S
O597        C598   1.268       .  A
C598       C1009   1.472       .  S
C599        C993   1.482       .  S
C602        C945   1.487       .  S
C603        O604   1.256       .  A
C603        C985   1.483       .  S
O605        C620   1.255       .  A
O605       Al613   1.862       .  S
C606        O616   1.271       .  A
C606        O607   1.271       .  A
C606        C873   1.480       .  S
O607       Al609   1.920       .  S
O608        C610   1.255       .  A
O608       Al609   1.877       .  S
Al609       O617   1.911       .  S
Al609       O619   1.907       .  S
Al609       O618   1.786       .  S
C610        O623   1.259       .  A
C610        C889   1.476       .  S
O611        C621   1.254       .  A
O611       Al613   1.904       .  S
O612        C625   1.272       .  A
O612       Al622   1.917       .  S
Al613       O626   1.914       .  S
Al613       O623   1.916       .  S
Al613       O618   1.791       .  S
O614        C621   1.253       .  A
O614       Al622   1.888       .  S
O615        C624   1.253       .  A
O615       Al622   1.896       .  S
O616       Al622   1.905       .  S
O617        C624   1.255       .  A
O618       Al622   1.787       .  S
O619        C620   1.261       .  A
C620        C937   1.474       .  S
C621        C913   1.462       .  S
C624        C953   1.486       .  S
C625        O626   1.271       .  A
C625        C897   1.476       .  S
O627        C642   1.255       .  A
O627      Al1755   1.871   1_455  S
C628        O638   1.272       .  A
C628        O629   1.270       .  A
C628        C865   1.481       .  S
O629       Al631   1.916       .  S
O630        C632   1.256       .  A
O630       Al631   1.881       .  S
Al631      O1759   1.902       .  S
Al631      O1761   1.923       .  S
Al631       O640   1.780       .  S
C632        O645   1.260       .  A
C632        C817   1.471       .  S
O633        C643   1.257       .  A
O633       Al635   1.915       .  S
O634        C647   1.268       .  A
Al635      O1747   1.875       .  S
Al635       O645   1.917       .  S
Al635       O640   1.783       .  S
O636        C643   1.255       .  A
O636       Al644   1.902       .  S
O637        C646   1.255       .  A
O637       Al644   1.900       .  S
O638       Al644   1.915       .  S
O639       C1766   1.259       .  A
O639      Al1751   1.903       .  S
O640       Al644   1.789       .  S
O641        C642   1.262       .  A
O641      Al1751   1.918   1_455  S
C642        C841   1.472       .  S
C643        C849   1.467       .  S
C646       O1759   1.258       .  A
C646       C1033   1.476       .  S
C647        O648   1.267       .  A
C647        C809   1.473       .  S
O649        C664   1.266       .  A
O649       Al657   1.908       .  S
C650        O660   1.269       .  A
C650        O651   1.266       .  A
C650        C785   1.485       .  S
O651       Al653   1.900       .  S
O652        C654   1.261       .  A
O652       Al653   1.910       .  S
Al653       O661   1.909       .  S
Al653       O663   1.915       .  S
Al653       O662   1.781       .  S
C654        O667   1.260       .  A
C654        C977   1.461       .  S
O655        C665   1.261       .  A
O655       Al657   1.926       .  S
O656        C669   1.268       .  A
O656      Al1786   1.934   1_455  S
Al657      O1790   1.869       .  S
Al657       O667   1.900       .  S
Al657       O662   1.782       .  S
O658        C665   1.253       .  A
O658       Al666   1.864       .  S
O659        C668   1.255       .  A
O659       Al666   1.889       .  S
O660       Al666   1.927       .  S
O661        C668   1.260       .  A
O662       Al666   1.780       .  S
O663        C664   1.267       .  A
C664       C1097   1.478       .  S
C665       C1113   1.473       .  S
Al666      O1776   1.927       .  S
C668        C769   1.477       .  S
C669        O670   1.259       .  A
C669        C961   1.476       .  S
O670      Al1777   1.884   1_455  S
O671        C686   1.266       .  A
C672        O682   1.266       .  A
C672        O673   1.265       .  A
C672        C793   1.487       .  S
O673       Al675   1.908       .  S
O674        C676   1.264       .  A
O674       Al675   1.914       .  S
Al675       O684   1.784       .  S
C676        O689   1.262       .  A
C676       C1081   1.467       .  S
O677        C687   1.259       .  A
O677       Al679   1.923       .  S
O678        C691   1.267       .  A
O678       Al688   1.933       .  S
Al679       O692   1.877       .  S
Al679       O689   1.902       .  S
Al679       O684   1.786       .  S
O680        C687   1.255       .  A
O680       Al688   1.878       .  S
O681        C690   1.257       .  A
O681       Al688   1.890       .  S
O682       Al688   1.919       .  S
O684       Al688   1.779       .  S
O685        C686   1.269       .  A
C686       C1001   1.484       .  S
C687       C1017   1.469       .  S
C690        C753   1.483       .  S
C691        O692   1.258       .  A
C691       C1065   1.477       .  S
O693        C708   1.266       .  A
O693      Al1821   1.906       .  S
C694        O704   1.271       .  A
C694        O695   1.269       .  A
C694        C745   1.481       .  S
O695       Al697   1.899       .  S
O696        C698   1.258       .  A
O696       Al697   1.911       .  S
Al697      O1825   1.903       .  S
Al697      O1827   1.904   1_455  S
Al697       O706   1.785       .  S
C698        O711   1.254       .  A
C698        C801   1.456       .  S
O699        C709   1.258       .  A
O699       Al701   1.906       .  S
O700        C713   1.267       .  A
O700       Al710   1.938       .  S
Al701      O1813   1.915   1_455  S
Al701       O714   1.854       .  S
Al701       O711   1.894       .  S
Al701       O706   1.779       .  S
O702        C709   1.252       .  A
O702       Al710   1.867       .  S
O703        C712   1.255       .  A
O703       Al710   1.889       .  S
O704       Al710   1.928       .  S
O705       C1832   1.255       .  A
O705      Al1817   1.892       .  S
O706       Al710   1.779       .  S
O707        C708   1.265       .  A
O707      Al1817   1.907       .  S
C708        C921   1.473       .  S
C709        C929   1.465       .  S
C712       O1825   1.256       .  A
C712        C777   1.470       .  S
C713        O714   1.255       .  A
C713        C825   1.480       .  S
O715        C730   1.260       .  A
O715       Al723   1.868       .  S
C716        O726   1.262       .  A
C716        O717   1.271       .  A
C716        C737   1.483       .  S
O717       Al719   1.936       .  S
O718        C720   1.253       .  A
O718       Al719   1.886       .  S
Al719       O727   1.881       .  S
Al719       O729   1.955       .  S
Al719       O728   1.770       .  S
C720        O733   1.257       .  A
C720        C905   1.476       .  S
O721        C731   1.264       .  A
O721       Al723   1.897       .  S
O722        C735   1.264       .  A
Al723       O733   1.922       .  S
Al723       O728   1.776       .  S
O724        C731   1.269       .  A
O724       Al732   1.933       .  S
O725        C734   1.260       .  A
O725       Al732   1.915       .  S
O726       Al732   1.879       .  S
O727        C734   1.254       .  A
O728       Al732   1.783       .  S
O729        C730   1.274       .  A
C730        C857   1.473       .  S
C731        C833   1.460       .  S
C734        C761   1.479       .  S
C735        O736   1.265       .  A
C735        C881   1.479       .  S
C737        C738   1.408       .  A
C737        C742   1.407       .  A
C738        C739   1.396       .  A
C738        H747   1.083       .  S
C739        C740   1.400       .  A
C739        H748   1.084       .  S
C740        C746   1.405       .  A
C740        C741   1.415       .  A
C741        C743   1.401       .  A
C741        C742   1.407       .  A
C742        H749   1.084       .  S
C743        C744   1.397       .  A
C743        H750   1.084       .  S
C744        C745   1.407       .  A
C744        H751   1.083       .  S
C745        C746   1.405       .  A
C746        H752   1.084       .  S
C753        C758   1.405   1_565  A
C754        C755   1.398       .  A
C754        H763   1.083       .  S
C755        C756   1.402   1_556  A
C755        H764   1.084       .  S
C756        C762   1.405       .  A
C757        C759   1.399   1_556  A
C757        C758   1.404       .  A
C758        H765   1.085       .  S
C759        C760   1.395       .  A
C759        H766   1.084       .  S
C760        H767   1.083       .  S
C761        C762   1.406       .  A
C762        H768   1.084       .  S
C769       C1890   1.407       .  A
C769        C774   1.404       .  A
C770       C1889   1.407   1_455  A
C770        C771   1.396       .  A
C770        H779   1.083       .  S
C771        C772   1.401   1_556  A
C771        H780   1.084       .  S
C772        C778   1.402       .  A
C772       C1893   1.414   1_454  A
C773       C1892   1.414   1_556  A
C773        C775   1.400   1_556  A
C773        C774   1.398       .  A
C774        H781   1.084       .  S
C775        C776   1.393       .  A
C775        H782   1.084       .  S
C776       C1897   1.403       .  A
C776        H783   1.083       .  S
C777       C1896   1.404   1_455  A
C777        C778   1.403       .  A
C778        H784   1.085       .  S
C785        C786   1.408       .  A
C785        C790   1.406       .  A
C786        C787   1.399       .  A
C786        H795   1.083       .  S
C787        C788   1.402       .  A
C787        H796   1.084       .  S
C788        C794   1.409       .  A
C788        C789   1.415       .  A
C789        C791   1.400       .  A
C789        C790   1.406       .  A
C790        H797   1.084       .  S
C791        C792   1.397       .  A
C791        H798   1.084       .  S
C792        C793   1.408       .  A
C792        H799   1.083       .  S
C793        C794   1.408       .  A
C794        H800   1.084       .  S
C801       C1922   1.398       .  A
C801        C806   1.402   1_455  A
C802       C1921   1.400       .  A
C802        C803   1.393       .  A
C802        H811   1.084       .  S
C803        C804   1.401       .  A
C803        H812   1.084       .  S
C804        C810   1.396       .  A
C804       C1925   1.414       .  A
C805       C1924   1.413   1_655  A
C805        C807   1.405       .  A
C805        C806   1.399       .  A
C806        H813   1.085       .  S
C807        C808   1.399       .  A
C807        H814   1.083       .  S
C808       C1929   1.400       .  A
C808        H815   1.083       .  S
C809       C1928   1.403       .  A
C809        C810   1.405       .  A
C810        H816   1.085       .  S
C817        C818   1.403       .  A
C817       C1942   1.407       .  A
C818        C819   1.393       .  A
C818        H827   1.084       .  S
C819        C820   1.401       .  A
C819        H828   1.084       .  S
C820        C826   1.398       .  A
C820       C1941   1.413       .  A
C821       C1940   1.413   1_455  A
C821        C823   1.406       .  A
C821        C822   1.407       .  A
C822       C1937   1.407   1_455  A
C822        H829   1.084       .  S
C823        C824   1.404       .  A
C823        H830   1.083       .  S
C824        C825   1.405       .  A
C824        H831   1.083       .  S
C825       C1946   1.407       .  A
C826       C1945   1.408       .  A
C826        H832   1.085       .  S
C833        C838   1.401       .  A
C834        C835   1.396       .  A
C834        H843   1.084       .  S
C835        C836   1.403       .  A
C835        H844   1.084       .  S
C836        C842   1.400       .  A
C837        C839   1.402       .  A
C837        C838   1.401       .  A
C838        H845   1.084       .  S
C839        C840   1.397       .  A
C839        H846   1.083       .  S
C840        H847   1.083       .  S
C841        C842   1.405   1_565  A
C842        H848   1.085       .  S
C849        C854   1.406   1_565  A
C850        C851   1.401       .  A
C850        H859   1.083       .  S
C851        C852   1.406       .  A
C851        H860   1.084       .  S
C852        C858   1.402       .  A
C852        C853   1.413       .  A
C853        C855   1.405       .  A
C854        H861   1.085       .  S
C855        C856   1.399       .  A
C855        H862   1.084       .  S
C856        C857   1.401       .  A
C856        H863   1.083       .  S
C857        C858   1.409       .  A
C858        H864   1.085       .  S
C865        C866   1.409       .  A
C865        C870   1.405       .  A
C866        C867   1.394       .  A
C866        H875   1.083       .  S
C867        C868   1.398       .  A
C867        H876   1.084       .  S
C868        C874   1.405       .  A
C868        C869   1.416       .  A
C869        C871   1.400       .  A
C869        C870   1.408       .  A
C870        H877   1.084       .  S
C871        C872   1.397       .  A
C871        H878   1.084       .  S
C872        C873   1.408       .  A
C872        H879   1.082       .  S
C873        C874   1.403       .  A
C874        H880   1.085       .  S
C881        C882   1.405       .  A
C881        C886   1.404       .  A
C882        C883   1.404       .  A
C882        H891   1.083       .  S
C883        C884   1.406       .  A
C883        H892   1.083       .  S
C884        C890   1.411       .  A
C884        C885   1.414       .  A
C885        C887   1.398       .  A
C885        C886   1.398       .  A
C886        H893   1.085       .  S
C887        C888   1.391       .  A
C887        H894   1.084       .  S
C888        C889   1.403       .  A
C888        H895   1.081       .  S
C889        C890   1.408       .  A
C890        H896   1.084       .  S
C897        C898   1.403       .  A
C897        C902   1.404       .  A
C898        C899   1.405       .  A
C898        H907   1.083       .  S
C899        C900   1.408       .  A
C899        H908   1.083       .  S
C900        C906   1.408       .  A
C900        C901   1.413       .  A
C901        C903   1.401       .  A
C901        C902   1.398       .  A
C902        H909   1.084       .  S
C903        C904   1.393       .  A
C903        H910   1.084       .  S
C904        C905   1.404       .  A
C904        H911   1.084       .  S
C905        C906   1.409       .  A
C906        H912   1.084       .  S
C913        C914   1.401       .  A
C913        C918   1.405       .  A
C914        C915   1.389       .  A
C914        H923   1.084       .  S
C915        C916   1.399       .  A
C915        H924   1.084       .  S
C916        C922   1.393       .  A
C916        C917   1.414       .  A
C917        C919   1.407       .  A
C917        C918   1.407       .  A
C918        H925   1.084       .  S
C919        C920   1.404       .  A
C919        H926   1.083       .  S
C920        C921   1.404       .  A
C920        H927   1.083       .  S
C921        C922   1.403       .  A
C922        H928   1.085       .  S
C929        C930   1.404       .  A
C929        C934   1.404       .  A
C930        C931   1.390       .  A
C930        H939   1.084       .  S
C931        C932   1.399       .  A
C931        H940   1.084       .  S
C932        C938   1.394       .  A
C932        C933   1.414       .  A
C933        C935   1.403       .  A
C933        C934   1.402       .  A
C934        H941   1.084       .  S
C935        C936   1.399       .  A
C935        H942   1.083       .  S
C936        C937   1.404       .  A
C936        H943   1.083       .  S
C937        C938   1.405       .  A
C938        H944   1.084       .  S
C945        C946   1.409       .  A
C945        C950   1.405       .  A
C946        C947   1.399       .  A
C946        H955   1.083       .  S
C947        C948   1.401       .  A
C947        H956   1.084       .  S
C948        C954   1.410       .  A
C948        C949   1.415       .  A
C949        C951   1.399       .  A
C949        C950   1.406       .  A
C950        H957   1.084       .  S
C951        C952   1.395       .  A
C951        H958   1.084       .  S
C952        C953   1.408       .  A
C952        H959   1.083       .  S
C953        C954   1.408       .  A
C954        H960   1.084       .  S
C961        C962   1.403       .  A
C961        C966   1.409       .  A
C962        C963   1.397       .  A
C962        H971   1.083       .  S
C963        C964   1.402       .  A
C963        H972   1.083       .  S
C964        C970   1.402       .  A
C964        C965   1.414       .  A
C965        C967   1.406       .  A
C965        C966   1.405       .  A
C966        H973   1.084       .  S
C967        C968   1.401       .  A
C967        H974   1.084       .  S
C968        C969   1.401       .  A
C968        H975   1.083       .  S
C969        C970   1.402       .  A
C970        H976   1.085       .  S
C977        C978   1.399       .  A
C977        C982   1.405       .  A
C978        C979   1.393       .  A
C978        H987   1.084       .  S
C979        C980   1.403       .  A
C979        H988   1.083       .  S
C980        C986   1.397       .  A
C980        C981   1.413       .  A
C981        C983   1.406       .  A
C981        C982   1.406       .  A
C982        H989   1.085       .  S
C983        C984   1.403       .  A
C983        H990   1.084       .  S
C984        C985   1.405       .  A
C984        H991   1.083       .  S
C985        C986   1.408       .  A
C986        H992   1.083       .  S
C993        C994   1.404       .  A
C993        C998   1.413       .  A
C994        C995   1.391       .  A
C994       H1003   1.083       .  S
C995        C996   1.399       .  A
C995       H1004   1.084       .  S
C996       C1002   1.398       .  A
C996        C997   1.413       .  A
C997        C999   1.410       .  A
C997        C998   1.415       .  A
C998       H1005   1.084       .  S
C999       C1000   1.409       .  A
C999       H1006   1.084       .  S
C1000      C1001   1.405       .  A
C1000      H1007   1.083       .  S
C1001      C1002   1.405       .  A
C1002      H1008   1.085       .  S
C1009      C1010   1.403       .  A
C1009      C1014   1.400       .  A
C1010      C1011   1.404       .  A
C1010      H1019   1.083       .  S
C1011      C1012   1.407       .  A
C1011      H1020   1.084       .  S
C1012      C1018   1.407       .  A
C1012      C1013   1.414       .  A
C1013      C1015   1.399       .  A
C1013      C1014   1.395       .  A
C1014      H1021   1.083       .  S
C1015      C1016   1.391       .  A
C1015      H1022   1.083       .  S
C1016      C1017   1.402       .  A
C1016      H1023   1.084       .  S
C1017      C1018   1.408       .  A
C1018      H1024   1.084       .  S
C1025      C1586   1.407       .  A
C1025      C1030   1.404   1_455  A
C1026      C1585   1.406   1_565  A
C1026      C1027   1.394       .  A
C1026      H1035   1.083       .  S
C1027      C1028   1.399       .  A
C1027      H1036   1.084       .  S
C1028      C1034   1.402       .  A
C1028      C1589   1.416   1_565  A
C1029      C1588   1.416   1_655  A
C1029      C1031   1.401       .  A
C1029      C1030   1.406       .  A
C1030      H1037   1.084       .  S
C1031      C1032   1.397       .  A
C1031      H1038   1.084       .  S
C1032      C1593   1.407       .  A
C1032      H1039   1.083       .  S
C1033      C1592   1.407   1_565  A
C1033      C1034   1.402       .  A
C1034      H1040   1.085       .  S
C1041      C1042   1.407       .  A
C1041      C1046   1.406       .  A
C1042      C1043   1.396       .  A
C1042      H1051   1.083       .  S
C1043      C1044   1.401       .  A
C1043      H1052   1.084       .  S
C1044      C1050   1.405       .  A
C1044      C1045   1.414       .  A
C1045      C1047   1.402       .  A
C1045      C1046   1.407       .  A
C1046      H1053   1.084       .  S
C1047      C1048   1.398       .  A
C1047      H1054   1.084       .  S
C1048      C1049   1.407       .  A
C1048      H1055   1.083       .  S
C1049      C1050   1.406       .  A
C1050      H1056   1.084       .  S
C1057      C1058   1.401       .  A
C1057      C1062   1.402       .  A
C1058      H1067   1.083       .  S
C1059      C1060   1.405       .  A
C1059      H1068   1.084       .  S
C1060      C1066   1.401       .  A
C1060      C1061   1.413   1_545  A
C1061      C1063   1.404       .  A
C1062      H1069   1.085       .  S
C1063      C1064   1.399       .  A
C1063      H1070   1.084       .  S
C1064      C1065   1.404       .  A
C1064      H1071   1.083       .  S
C1065      C1066   1.407   1_565  A
C1066      H1072   1.084       .  S
C1073      C1074   1.406       .  A
C1073      C1078   1.409       .  A
C1074      C1075   1.403       .  A
C1074      H1083   1.083       .  S
C1075      C1076   1.405       .  A
C1075      H1084   1.083       .  S
C1076      C1082   1.410       .  A
C1076      C1077   1.414       .  A
C1077      C1078   1.402       .  A
C1078      H1085   1.084       .  S
C1079      C1080   1.393       .  A
C1079      H1086   1.084       .  S
C1080      C1081   1.401       .  A
C1080      H1087   1.084       .  S
C1082      H1088   1.084       .  S
C1089      C2210   1.403       .  A
C1089      C1094   1.409   1_455  A
C1090      C2209   1.403       .  A
C1090      C1091   1.391       .  A
C1090      H1099   1.083       .  S
C1091      C1092   1.399       .  A
C1091      H1100   1.084       .  S
C1092      C1098   1.397       .  A
C1092      C2213   1.413       .  A
C1093      C2212   1.412   1_655  A
C1093      C1095   1.408       .  A
C1093      C1094   1.407       .  A
C1094      H1101   1.084       .  S
C1095      C2216   1.405       .  A
C1095      H1102   1.084       .  S
C1096      C2215   1.404       .  A
C1096      C1097   1.404       .  A
C1096      H2223   1.083       .  S
C1097      C1098   1.405       .  A
C1098      H1104   1.085       .  S
H1103      C2216   1.083       .  S
C1105      C1106   1.404       .  A
C1105      C1110   1.401       .  A
C1106      C1107   1.405       .  A
C1106      H1115   1.083       .  S
C1107      C1108   1.408       .  A
C1107      H1116   1.083       .  S
C1108      C2234   1.408       .  A
C1108      C1109   1.413   1_455  A
C1109      C1111   1.397       .  A
C1109      C1110   1.392   1_655  A
C1110      H1117   1.085   1_455  S
C1111      C2232   1.387       .  A
C1111      H1118   1.084       .  S
C1112      C2231   1.389       .  A
C1112      C1113   1.405       .  A
C1112      H1119   1.084       .  S
C1113      C1114   1.408       .  A
C1114      C2228   1.407       .  A
C1114      H1120   1.084       .  S
O1121      C1136   1.271       .  A
O1121     Al1689   1.911       .  S
C1122      O1132   1.274       .  A
C1122      O1123   1.271       .  A
C1122      C1601   1.478       .  S
O1123     Al1125   1.896       .  S
O1124      C1126   1.254       .  A
O1124     Al1125   1.902       .  S
Al1125     O1693   1.886       .  S
Al1125     O1695   1.909   1_545  S
Al1125     O1134   1.789       .  S
C1126      O1139   1.256       .  A
C1126      C1617   1.463       .  S
O1127      C1137   1.257       .  A
O1127     Al1129   1.908       .  S
O1128      C1141   1.267       .  A
Al1129     O1681   1.910   1_545  S
Al1129     O1139   1.910       .  S
Al1129     O1134   1.786       .  S
O1130      C1137   1.254       .  A
O1130     Al1138   1.876       .  S
O1131      C1140   1.253       .  A
O1131     Al1138   1.903       .  S
O1132     Al1138   1.928       .  S
O1133      C1700   1.251       .  A
O1133     Al1685   1.888       .  S
O1134     Al1138   1.784       .  S
O1135      C1136   1.269       .  A
O1135     Al1685   1.905       .  S
C1136      C1665   1.469       .  S
C1137      C1649   1.477       .  S
C1140      O1693   1.250       .  A
C1140      C1585   1.477       .  S
C1141      O1142   1.257       .  A
C1141      C1633   1.483       .  S
O1143      C1158   1.270       .  A
O1143     Al1151   1.911       .  S
C1144      O1154   1.271       .  A
C1144      O1145   1.270       .  A
C1144      C1609   1.479       .  S
O1145     Al1147   1.897       .  S
O1146      C1148   1.255       .  A
O1146     Al1147   1.905       .  S
Al1147     O1155   1.891       .  S
Al1147     O1157   1.909       .  S
Al1147     O1156   1.789       .  S
C1148      O1161   1.257       .  A
C1148      C1529   1.467       .  S
O1149      C1159   1.260       .  A
O1149     Al1151   1.918       .  S
O1150      C1163   1.264       .  A
O1150     Al1160   1.924       .  S
Al1151     O1164   1.877       .  S
Al1151     O1161   1.911       .  S
Al1151     O1156   1.786       .  S
O1152      C1159   1.255       .  A
O1152     Al1160   1.877       .  S
O1153      C1162   1.256       .  A
O1153     Al1160   1.904       .  S
O1154     Al1160   1.925       .  S
O1155      C1162   1.253       .  A
O1156     Al1160   1.784       .  S
O1157      C1158   1.268       .  A
C1158      C1569   1.474       .  S
C1159      C1553   1.478       .  S
C1162      C1505   1.477       .  S
C1163      O1164   1.257       .  A
C1163      C1545   1.482       .  S
O1165      C1180   1.256       .  A
O1165     Al1173   1.869       .  S
C1166      O1176   1.266       .  A
C1166      O1167   1.267       .  A
C1166      C1433   1.477       .  S
O1167     Al1169   1.918       .  S
O1168      C1170   1.256       .  A
O1168     Al1169   1.877       .  S
Al1169     O1177   1.899       .  S
Al1169     O1179   1.916       .  S
Al1169     O1178   1.784       .  S
C1170      O1183   1.260       .  A
C1170      C1449   1.472       .  S
O1171      C1181   1.257       .  A
O1171     Al1173   1.905       .  S
O1172      C1185   1.267       .  A
O1172     Al1182   1.909       .  S
Al1173     O1186   1.908       .  S
Al1173     O1183   1.917       .  S
Al1173     O1178   1.784       .  S
O1174      C1181   1.256       .  A
O1174     Al1182   1.892       .  S
O1175      C1184   1.256       .  A
O1175     Al1182   1.899       .  S
O1176     Al1182   1.896       .  S
O1177      C1184   1.258       .  A
O1178     Al1182   1.787       .  S
O1179      C1180   1.262       .  A
C1180      C1497   1.476       .  S
C1181      C1473   1.461       .  S
C1184      C1513   1.476       .  S
C1185      O1186   1.268       .  A
C1185      C1457   1.471       .  S
O1187      C1202   1.258       .  A
C1188      O1198   1.268       .  A
C1188      O1189   1.267       .  A
C1188      C1425   1.477       .  S
O1189     Al1191   1.914       .  S
O1190      C1192   1.258       .  A
O1190     Al1191   1.875       .  S
Al1191     O1200   1.777       .  S
C1192      O1205   1.264       .  A
C1192      C1377   1.477       .  S
O1193      C1203   1.258       .  A
O1193     Al1195   1.909       .  S
O1194      C1207   1.271       .  A
O1194     Al1764   1.916   1_545  S
Al1195     O1768   1.914       .  S
Al1195     O1205   1.936       .  S
Al1195     O1200   1.780       .  S
O1196      C1203   1.257       .  A
O1196     Al1204   1.899       .  S
O1197      C1206   1.259       .  A
O1197     Al1204   1.906       .  S
O1198     Al1204   1.908       .  S
O1200     Al1204   1.787       .  S
O1201      C1202   1.265       .  A
C1202      C1401   1.476       .  S
C1203      C1409   1.464       .  S
Al1204     O1754   1.895       .  S
C1206      C1593   1.475       .  S
C1207      O1208   1.270       .  A
C1207      C1369   1.478       .  S
O1208     Al1755   1.916   1_545  S
O1209      C1224   1.267       .  A
O1209     Al1217   1.909       .  S
C1210      O1220   1.267       .  A
C1210      O1211   1.265       .  A
C1210      C1345   1.481       .  S
O1211     Al1213   1.900       .  S
O1212      C1214   1.260       .  A
O1212     Al1213   1.909       .  S
Al1213     O1221   1.920       .  S
Al1213     O1223   1.918       .  S
Al1213     O1222   1.787       .  S
C1214      O1227   1.261       .  A
C1214      C1537   1.464       .  S
O1215      C1225   1.261       .  A
O1215     Al1217   1.934       .  S
O1216      C1229   1.270       .  A
Al1217     O1227   1.908       .  S
Al1217     O1222   1.784       .  S
O1218      C1225   1.253       .  A
O1218     Al1226   1.867       .  S
O1219      C1228   1.255   1_455  A
O1219     Al1226   1.886   1_455  S
O1220     Al1226   1.919       .  S
O1221      C1228   1.260       .  A
O1222     Al1226   1.781       .  S
O1223      C1224   1.268       .  A
C1224      C1657   1.478       .  S
C1225      C1673   1.477       .  S
C1228      C1329   1.480       .  S
C1229      O1230   1.257       .  A
C1229      C1521   1.484       .  S
O1231      C1246   1.267       .  A
O1231     Al1799   1.909   1_545  S
C1232      O1242   1.267       .  A
C1232      O1233   1.266       .  A
C1232      C1353   1.481       .  S
O1233     Al1235   1.903       .  S
O1234      C1236   1.264       .  A
O1234     Al1235   1.932       .  S
Al1235     O1803   1.941       .  S
Al1235     O1805   1.914       .  S
Al1235     O1244   1.782       .  S
C1236      O1249   1.260       .  A
C1236      C1641   1.468       .  S
O1237      C1247   1.262       .  A
O1237     Al1239   1.931       .  S
O1238      C1251   1.264       .  A
O1238     Al1248   1.925       .  S
Al1239     O1791   1.910       .  S
Al1239     O1252   1.870       .  S
Al1239     O1249   1.903       .  S
Al1239     O1244   1.775       .  S
O1240      C1247   1.255       .  A
O1240     Al1248   1.873       .  S
O1241      C1250   1.257       .  A
O1241     Al1248   1.890       .  S
O1242     Al1248   1.919       .  S
O1243      C1810   1.262       .  A
O1243     Al1795   1.937       .  S
O1244     Al1248   1.774       .  S
O1245      C1246   1.270       .  A
O1245     Al1795   1.924   1_545  S
C1246      C1561   1.481       .  S
C1247      C1577   1.474       .  S
C1250      O1803   1.266       .  A
C1250      C1313   1.488       .  S
C1251      O1252   1.256       .  A
C1251      C1625   1.464       .  S
O1253      C1268   1.267       .  A
C1254      O1264   1.272       .  A
C1254      O1255   1.265       .  A
C1254      C1305   1.488       .  S
O1255     Al1257   1.896       .  S
O1256      C1258   1.258       .  A
O1256     Al1257   1.902       .  S
Al1257     O1266   1.785       .  S
C1258      O1271   1.257       .  A
C1258      C1361   1.457       .  S
O1259      C1269   1.259       .  A
O1259     Al1261   1.913       .  S
O1260      C1273   1.269       .  A
O1260     Al1270   1.948       .  S
Al1261     O1274   1.862       .  S
Al1261     O1271   1.899       .  S
Al1261     O1266   1.783       .  S
O1262      C1269   1.253       .  A
O1262     Al1270   1.869       .  S
O1263      C1272   1.258       .  A
O1263     Al1270   1.901       .  S
O1264     Al1270   1.937       .  S
O1266     Al1270   1.781       .  S
O1267      C1268   1.267       .  A
C1268      C1481   1.474       .  S
C1269      C1489   1.465       .  S
C1272      C1337   1.475       .  S
C1273      O1274   1.256       .  A
C1273      C1385   1.481       .  S
O1275      C1290   1.261       .  A
O1275     Al1283   1.872       .  S
C1276      O1286   1.261       .  A
C1276      O1277   1.267       .  A
C1276      C1297   1.489       .  S
O1277     Al1279   1.928       .  S
O1278      C1280   1.252       .  A
O1278     Al1279   1.874       .  S
Al1279     O1287   1.871       .  S
Al1279     O1289   1.946       .  S
Al1279     O1288   1.775       .  S
C1280      O1293   1.259       .  A
C1280      C1465   1.473       .  S
O1281      C1291   1.265       .  A
O1281     Al1283   1.902       .  S
O1282      C1295   1.263       .  A
O1282     Al1852   1.909       .  S
Al1283     O1856   1.904   1_545  S
Al1283     O1293   1.931       .  S
Al1283     O1288   1.782       .  S
O1284      C1291   1.269       .  A
O1284     Al1292   1.928       .  S
O1285      C1294   1.265       .  A
O1285     Al1292   1.934       .  S
O1286     Al1292   1.892       .  S
O1287      C1294   1.254       .  A
O1288     Al1292   1.781       .  S
O1289      C1290   1.271       .  A
C1290      C1417   1.467       .  S
C1291      C1393   1.464       .  S
Al1292     O1842   1.922   1_545  S
C1294      C1321   1.484       .  S
C1295      O1296   1.263       .  A
C1295      C1441   1.474       .  S
O1296     Al1843   1.909       .  S
C1297      C1298   1.408       .  A
C1297      C1302   1.409       .  A
C1298      C1299   1.399       .  A
C1298      H1307   1.083       .  S
C1299      C1300   1.402       .  A
C1299      H1308   1.084       .  S
C1300      C1306   1.408       .  A
C1300      C1301   1.414       .  A
C1301      C1303   1.403       .  A
C1301      C1302   1.409       .  A
C1302      H1309   1.084       .  S
C1303      C1304   1.400       .  A
C1303      H1310   1.084       .  S
C1304      C1305   1.407       .  A
C1304      H1311   1.083       .  S
C1305      C1306   1.409       .  A
C1306      H1312   1.084       .  S
C1313      C1874   1.409       .  A
C1313      C1318   1.407       .  A
C1314      C1873   1.409       .  A
C1314      C1315   1.395       .  A
C1314      H1323   1.083       .  S
C1315      C1316   1.399   1_556  A
C1315      H1324   1.084       .  S
C1316      C1322   1.406   1_565  A
C1316      C1877   1.416   1_564  A
C1317      C1876   1.415   1_556  A
C1317      C1319   1.400   1_556  A
C1317      C1318   1.408       .  A
C1318      H1325   1.084       .  S
C1319      C1320   1.397       .  A
C1319      H1326   1.084       .  S
C1320      C1881   1.408       .  A
C1320      H1327   1.083       .  S
C1321      C1880   1.409       .  A
C1321      C1322   1.404       .  A
C1322      H1328   1.084   1_545  S
C1329      C1334   1.406       .  A
C1330      C1331   1.395       .  A
C1330      H1339   1.083       .  S
C1331      C1332   1.399   1_556  A
C1331      H1340   1.084       .  S
C1332      C1338   1.404       .  A
C1333      C1335   1.402   1_556  A
C1333      C1334   1.405       .  A
C1334      H1341   1.084       .  S
C1335      C1336   1.397       .  A
C1335      H1342   1.083       .  S
C1336      H1343   1.083       .  S
C1337      C1338   1.403       .  A
C1338      H1344   1.085       .  S
C1345      C1346   1.408       .  A
C1345      C1350   1.405       .  A
C1346      C1347   1.397       .  A
C1346      H1355   1.083       .  S
C1347      C1348   1.401       .  A
C1347      H1356   1.084       .  S
C1348      C1354   1.406       .  A
C1348      C1349   1.415       .  A
C1349      C1351   1.400       .  A
C1349      C1350   1.406       .  A
C1350      H1357   1.084       .  S
C1351      C1352   1.396       .  A
C1351      H1358   1.084       .  S
C1352      C1353   1.408       .  A
C1352      H1359   1.083       .  S
C1353      C1354   1.406       .  A
C1354      H1360   1.084       .  S
C1361      C1366   1.403       .  A
C1362      C1363   1.394       .  A
C1362      H1371   1.084       .  S
C1363      C1364   1.402       .  A
C1363      H1372   1.084       .  S
C1364      C1370   1.399       .  A
C1365      C1367   1.406       .  A
C1365      C1366   1.404       .  A
C1366      H1373   1.084       .  S
C1367      C1368   1.401       .  A
C1367      H1374   1.083       .  S
C1368      H1375   1.083       .  S
C1369      C1370   1.406   1_655  A
C1370      H1376   1.085       .  S
C1377      C1378   1.404       .  A
C1378      C1379   1.390       .  A
C1378      H1387   1.084       .  S
C1379      C1380   1.399       .  A
C1379      H1388   1.084       .  S
C1380      C1386   1.398   1_655  A
C1381      C1383   1.407       .  A
C1381      C1382   1.407       .  A
C1382      H1389   1.084       .  S
C1383      C1384   1.404       .  A
C1383      H1390   1.083       .  S
C1384      C1385   1.404       .  A
C1384      H1391   1.083       .  S
C1386      H1392   1.084   1_455  S
C1393      C1954   1.400       .  A
C1393      C1398   1.404   1_545  A
C1394      C1953   1.402       .  A
C1394      C1395   1.399       .  A
C1394      H1403   1.084       .  S
C1395      C1396   1.404       .  A
C1395      H1404   1.084       .  S
C1396      C1402   1.405       .  A
C1396      C1957   1.415       .  A
C1397      C1956   1.414   1_565  A
C1397      C1399   1.405       .  A
C1397      C1398   1.408       .  A
C1398      H1405   1.084       .  S
C1399      C1400   1.402       .  A
C1399      H1406   1.083       .  S
C1400      C1961   1.406       .  A
C1400      H1407   1.083       .  S
C1401      C1960   1.404       .  A
C1401      C1402   1.407       .  A
C1402      H1408   1.084       .  S
C1409      C1970   1.400       .  A
C1409      C1414   1.404       .  A
C1410      C1969   1.400       .  A
C1410      C1411   1.400       .  A
C1410      H1419   1.083       .  S
C1411      C1412   1.406       .  A
C1411      H1420   1.084       .  S
C1412      C1418   1.400   1_565  A
C1412      C1413   1.413   1_565  A
C1413      C1415   1.404       .  A
C1413      C1974   1.399       .  A
C1414      C1973   1.399       .  A
C1414      H1421   1.085       .  S
C1415      C1416   1.397       .  A
C1415      H1422   1.084       .  S
C1416      C1417   1.401       .  A
C1416      H1423   1.083       .  S
C1417      C1418   1.406       .  A
C1418      H1424   1.085   1_545  S
C1425      C1426   1.407       .  A
C1425      C1430   1.404       .  A
C1426      C1427   1.393       .  A
C1426      H1435   1.083       .  S
C1427      C1428   1.398       .  A
C1427      H1436   1.084       .  S
C1428      C1434   1.403       .  A
C1428      C1429   1.416       .  A
C1429      C1431   1.401       .  A
C1429      C1430   1.407       .  A
C1430      H1437   1.084       .  S
C1431      C1432   1.397       .  A
C1431      H1438   1.084       .  S
C1432      C1433   1.408       .  A
C1432      H1439   1.083       .  S
C1433      C1434   1.402       .  A
C1434      H1440   1.085       .  S
C1441      C1442   1.404       .  A
C1441      C1446   1.403       .  A
C1442      C1443   1.403       .  A
C1442      H1451   1.083       .  S
C1443      C1444   1.406       .  A
C1443      H1452   1.083       .  S
C1444      C1450   1.407       .  A
C1444      C1445   1.414       .  A
C1445      C1447   1.399       .  A
C1445      C1446   1.397       .  A
C1446      H1453   1.085       .  S
C1447      C1448   1.392       .  A
C1447      H1454   1.084       .  S
C1448      C1449   1.403       .  A
C1448      H1455   1.083       .  S
C1449      C1450   1.407       .  A
C1450      H1456   1.084       .  S
C1457      C1458   1.403       .  A
C1457      C1462   1.401       .  A
C1458      C1459   1.404       .  A
C1458      H1467   1.083       .  S
C1459      C1460   1.408       .  A
C1459      H1468   1.083       .  S
C1460      C1466   1.408       .  A
C1460      C1461   1.413       .  A
C1461      C1463   1.398       .  A
C1461      C1462   1.394       .  A
C1462      H1469   1.084       .  S
C1463      C1464   1.390       .  A
C1463      H1470   1.084       .  S
C1464      C1465   1.404       .  A
C1464      H1471   1.084       .  S
C1465      C1466   1.409       .  A
C1466      H1472   1.084       .  S
C1473      C1474   1.401       .  A
C1473      C1478   1.404       .  A
C1474      C1475   1.392       .  A
C1474      H1483   1.084       .  S
C1475      C1476   1.401       .  A
C1475      H1484   1.084       .  S
C1476      C1482   1.396       .  A
C1476      C1477   1.414       .  A
C1477      C1479   1.406       .  A
C1477      C1478   1.406       .  A
C1478      H1485   1.084       .  S
C1479      C1480   1.402       .  A
C1479      H1486   1.083       .  S
C1480      C1481   1.403       .  A
C1480      H1487   1.083       .  S
C1481      C1482   1.404       .  A
C1482      H1488   1.085       .  S
C1489      C1490   1.403       .  A
C1489      C1494   1.404       .  A
C1490      C1491   1.391       .  A
C1490      H1499   1.084       .  S
C1491      C1492   1.400       .  A
C1491      H1500   1.084       .  S
C1492      C1498   1.395       .  A
C1492      C1493   1.414       .  A
C1493      C1495   1.404       .  A
C1493      C1494   1.404       .  A
C1494      H1501   1.084       .  S
C1495      C1496   1.400       .  A
C1495      H1502   1.083       .  S
C1496      C1497   1.405       .  A
C1496      H1503   1.083       .  S
C1497      C1498   1.405       .  A
C1498      H1504   1.083       .  S
C1505      C1506   1.407       .  A
C1505      C1510   1.404       .  A
C1506      C1507   1.394       .  A
C1506      H1515   1.083       .  S
C1507      C1508   1.399       .  A
C1507      H1516   1.084       .  S
C1508      C1514   1.402       .  A
C1508      C1509   1.416       .  A
C1509      C1511   1.401       .  A
C1509      C1510   1.405       .  A
C1510      H1517   1.085       .  S
C1511      C1512   1.397       .  A
C1511      H1518   1.084       .  S
C1512      C1513   1.407       .  A
C1512      H1519   1.083       .  S
C1513      C1514   1.403       .  A
C1514      H1520   1.085       .  S
C1521      C1522   1.405       .  A
C1521      C1526   1.409       .  A
C1522      C1523   1.403       .  A
C1522      H1531   1.083       .  S
C1523      C1524   1.406       .  A
C1523      H1532   1.083       .  S
C1524      C1530   1.407       .  A
C1524      C1525   1.413       .  A
C1525      C1527   1.404       .  A
C1525      C1526   1.401       .  A
C1526      H1533   1.085       .  S
C1527      C1528   1.396       .  A
C1527      H1534   1.084       .  S
C1528      C1529   1.400       .  A
C1528      H1535   1.084       .  S
C1529      C1530   1.406       .  A
C1530      H1536   1.084       .  S
C1537      C1538   1.400       .  A
C1537      C1542   1.404       .  A
C1538      C1539   1.397       .  A
C1538      H1547   1.084       .  S
C1539      C1540   1.404       .  A
C1539      H1548   1.083       .  S
C1540      C1546   1.401       .  A
C1540      C1541   1.413       .  A
C1541      C1543   1.405       .  A
C1541      C1542   1.406       .  A
C1542      H1549   1.084       .  S
C1543      C1544   1.401       .  A
C1543      H1550   1.083       .  S
C1544      C1545   1.405       .  A
C1544      H1551   1.083       .  S
C1545      C1546   1.408       .  A
C1546      H1552   1.082       .  S
C1553      C1554   1.405       .  A
C1553      C1558   1.409       .  A
C1554      C1555   1.392       .  A
C1554      H1563   1.084       .  S
C1555      C1556   1.400       .  A
C1555      H1564   1.084       .  S
C1556      C1562   1.398       .  A
C1556      C1557   1.413       .  A
C1557      C1559   1.407       .  A
C1557      C1558   1.410       .  A
C1558      H1565   1.084       .  S
C1559      C1560   1.405       .  A
C1559      H1566   1.084       .  S
C1560      C1561   1.404       .  A
C1560      H1567   1.083       .  S
C1561      C1562   1.406       .  A
C1562      H1568   1.085       .  S
C1569      C1570   1.404       .  A
C1569      C1574   1.403       .  A
C1570      C1571   1.404       .  A
C1570      H1579   1.083       .  S
C1571      C1572   1.407       .  A
C1571      H1580   1.083       .  S
C1572      C1578   1.408       .  A
C1572      C1573   1.413       .  A
C1573      C1575   1.398       .  A
C1573      C1574   1.394       .  A
C1574      H1581   1.084       .  S
C1575      C1576   1.390       .  A
C1575      H1582   1.084       .  S
C1576      C1577   1.405       .  A
C1576      H1583   1.084       .  S
C1577      C1578   1.409       .  A
C1578      H1584   1.084       .  S
C1585      C1590   1.405       .  A
C1586      C1587   1.394       .  A
C1586      H1595   1.083       .  S
C1587      C1588   1.399       .  A
C1587      H1596   1.084       .  S
C1588      C1594   1.402       .  A
C1589      C1591   1.401       .  A
C1589      C1590   1.406       .  A
C1590      H1597   1.084       .  S
C1591      C1592   1.398       .  A
C1591      H1598   1.084       .  S
C1592      H1599   1.083       .  S
C1593      C1594   1.402   1_655  A
C1594      H1600   1.084       .  S
C1601      C1602   1.406       .  A
C1601      C1606   1.405       .  A
C1602      C1603   1.395       .  A
C1602      H1611   1.083       .  S
C1603      C1604   1.400       .  A
C1603      H1612   1.084       .  S
C1604      C1610   1.403       .  A
C1604      C1605   1.415       .  A
C1605      C1607   1.401       .  A
C1605      C1606   1.405       .  A
C1606      H1613   1.084       .  S
C1607      C1608   1.397       .  A
C1607      H1614   1.084       .  S
C1608      C1609   1.408       .  A
C1608      H1615   1.083       .  S
C1609      C1610   1.405       .  A
C1610      H1616   1.084       .  S
C1617      C1618   1.400       .  A
C1617      C1622   1.405       .  A
C1618      C2179   1.396       .  A
C1618      H1627   1.084       .  S
C1619      C2178   1.399       .  A
C1619      C1620   1.406       .  A
C1619      H1628   1.083       .  S
C1620      C1626   1.399       .  A
C1620      C1621   1.413       .  A
C1621      C1623   1.404       .  A
C1621      C2182   1.396       .  A
C1622      C2181   1.406   1_545  A
C1622      H1629   1.085   1_545  S
C1623      C1624   1.396       .  A
C1623      H1630   1.083       .  S
C1624      C1625   1.400       .  A
C1624      H1631   1.084       .  S
C1625      C1626   1.405       .  A
C1626      H1632   1.085       .  S
C1633      C1634   1.405       .  A
C1633      C1638   1.408   1_545  A
C1634      C1635   1.403       .  A
C1634      H1643   1.083       .  S
C1635      C1636   1.406       .  A
C1635      H1644   1.083       .  S
C1636      C1642   1.407       .  A
C1636      C1637   1.413   1_545  A
C1637      C2199   1.403       .  A
C1637      C1638   1.399       .  A
C1638      H1645   1.084       .  S
C1639      C2197   1.404       .  A
C1639      C1640   1.399       .  A
C1639      H1646   1.084       .  S
C1640      C1641   1.400       .  A
C1640      H1647   1.083       .  S
C1641      C2202   1.405       .  A
C1642      C2201   1.405   1_545  A
C1642      H1648   1.084       .  S
C1649      C1654   1.410       .  A
C1650      C1651   1.392       .  A
C1650      H1659   1.084       .  S
C1651      C1652   1.400       .  A
C1651      H1660   1.084       .  S
C1652      C1658   1.397   1_455  A
C1653      C1655   1.408       .  A
C1653      C1654   1.410       .  A
C1654      H1661   1.084       .  S
C1655      H1662   1.083       .  S
C1656      C1657   1.404       .  A
C1657      C1658   1.404       .  A
C1658      H1664   1.085   1_655  S
C1665      C1666   1.403       .  A
C1665      C1670   1.403       .  A
C1666      C1667   1.402       .  A
C1666      H1675   1.083       .  S
C1667      C1668   1.406       .  A
C1667      H1676   1.083       .  S
C1668      C1669   1.413       .  A
C1669      C1671   1.398       .  A
C1669      C1670   1.392       .  A
C1670      H1677   1.085       .  S
C1671      H1678   1.084       .  S
C1672      C1673   1.406       .  A
C1672      H1679   1.084       .  S
C1673      C1674   1.408       .  A
C1674      H1680   1.084   1_655  S
O1681      C1696   1.270       .  A
C1682      O1692   1.275       .  A
C1682      O1683   1.271       .  A
C1682      C2161   1.479       .  S
O1683     Al1685   1.898       .  S
O1684      C1686   1.254       .  A
O1684     Al1685   1.895       .  S
Al1685     O1694   1.790       .  S
C1686      O1699   1.255       .  A
C1686      C2177   1.461       .  S
O1687      C1697   1.256       .  A
O1687     Al1689   1.906       .  S
O1688      C1701   1.267       .  A
Al1689     O1699   1.910       .  S
Al1689     O1694   1.787       .  S
O1690      C1697   1.254       .  A
O1690     Al1698   1.877       .  S
O1691      C1700   1.254       .  A
O1691     Al1698   1.903       .  S
O1692     Al1698   1.931       .  S
O1694     Al1698   1.779       .  S
O1695      C1696   1.269       .  A
C1696      C2225   1.474       .  S
C1697      C2209   1.474       .  S
C1700      C2145   1.476       .  S
C1701      O1702   1.257       .  A
C1701      C2193   1.477       .  S
O1703      C1718   1.268       .  A
O1703     Al1711   1.910       .  S
C1704      O1714   1.271       .  A
C1704      O1705   1.269       .  A
C1704      C2169   1.481       .  S
O1705     Al1707   1.900       .  S
O1706      C1708   1.256       .  A
O1706     Al1707   1.900       .  S
Al1707     O1715   1.893       .  S
Al1707     O1717   1.911       .  S
Al1707     O1716   1.785       .  S
C1708      O1721   1.257       .  A
C1708      C2089   1.458       .  S
O1709      C1719   1.258       .  A
O1709     Al1711   1.912       .  S
O1710      C1723   1.265       .  A
O1710     Al1720   1.924       .  S
Al1711     O1724   1.868       .  S
Al1711     O1721   1.907       .  S
Al1711     O1716   1.784       .  S
O1712      C1719   1.256       .  A
O1712     Al1720   1.881       .  S
O1713      C1722   1.258       .  A
O1713     Al1720   1.909       .  S
O1714     Al1720   1.924       .  S
O1715      C1722   1.254       .  A
O1716     Al1720   1.780       .  S
O1717      C1718   1.268       .  A
C1718      C2129   1.474       .  S
C1719      C2113   1.474       .  S
C1722      C2065   1.481       .  S
C1723      O1724   1.257       .  A
C1723      C2105   1.475       .  S
O1725      C1740   1.256       .  A
O1725     Al1733   1.861       .  S
C1726      O1736   1.270       .  A
C1726      O1727   1.270       .  A
C1726      C1993   1.485       .  S
O1727     Al1729   1.922       .  S
O1728      C1730   1.256       .  A
O1728     Al1729   1.886       .  S
Al1729     O1737   1.909       .  S
Al1729     O1739   1.924       .  S
Al1729     O1738   1.785       .  S
C1730      O1743   1.258       .  A
C1730      C2009   1.475       .  S
O1731      C1741   1.256       .  A
O1731     Al1733   1.903       .  S
O1732      C1745   1.272       .  A
O1732     Al1742   1.929       .  S
Al1733     O1746   1.910       .  S
Al1733     O1743   1.910       .  S
Al1733     O1738   1.787       .  S
O1734      C1741   1.255       .  A
O1734     Al1742   1.892       .  S
O1735      C1744   1.254       .  A
O1735     Al1742   1.894       .  S
O1736     Al1742   1.909       .  S
O1737      C1744   1.257       .  A
O1738     Al1742   1.786       .  S
O1739      C1740   1.264       .  A
C1740      C2057   1.479       .  S
C1741      C2033   1.460       .  S
C1744      C2073   1.482       .  S
C1745      O1746   1.268       .  A
C1745      C2017   1.482       .  S
O1747      C1762   1.256       .  A
C1748      O1758   1.273       .  A
C1748      O1749   1.269       .  A
C1748      C1985   1.483       .  S
O1749     Al1751   1.915       .  S
O1750      C1752   1.256       .  A
O1750     Al1751   1.874       .  S
Al1751     O1760   1.778       .  S
C1752      O1765   1.261       .  A
C1752      C1937   1.470       .  S
O1753      C1763   1.257       .  A
O1753     Al1755   1.912       .  S
O1754      C1767   1.264       .  A
Al1755     O1765   1.918       .  S
Al1755     O1760   1.782       .  S
O1756      C1763   1.256       .  A
O1756     Al1764   1.899       .  S
O1757      C1766   1.256       .  A
O1757     Al1764   1.902       .  S
O1758     Al1764   1.924       .  S
O1760     Al1764   1.785       .  S
O1761      C1762   1.263       .  A
C1762      C1961   1.482       .  S
C1763      C1969   1.466       .  S
C1766      C2153   1.477       .  S
C1767      O1768   1.268       .  A
C1767      C1929   1.459       .  S
O1769      C1784   1.263       .  A
O1769     Al1777   1.897       .  S
C1770      O1780   1.269       .  A
C1770      O1771   1.267       .  A
C1770      C1905   1.491       .  S
O1771     Al1773   1.913       .  S
O1772      C1774   1.262       .  A
O1772     Al1773   1.911       .  S
Al1773     O1781   1.916       .  S
Al1773     O1783   1.928       .  S
Al1773     O1782   1.783       .  S
C1774      O1787   1.261       .  A
C1774      C2097   1.457       .  S
O1775      C1785   1.260       .  A
O1775     Al1777   1.925       .  S
O1776      C1789   1.265       .  A
Al1777     O1787   1.901       .  S
Al1777     O1782   1.782       .  S
O1778      C1785   1.253       .  A
O1778     Al1786   1.866       .  S
O1779      C1788   1.256   1_455  A
O1779     Al1786   1.885   1_455  S
O1780     Al1786   1.929       .  S
O1781      C1788   1.261       .  A
O1782     Al1786   1.772       .  S
O1783      C1784   1.269       .  A
C1784      C2217   1.475       .  S
C1785      C2233   1.470       .  S
C1788      C1889   1.478       .  S
C1789      O1790   1.256       .  A
C1789      C2081   1.471       .  S
O1791      C1806   1.267       .  A
C1792      O1802   1.271       .  A
C1792      O1793   1.267       .  A
C1792      C1913   1.493       .  S
O1793     Al1795   1.910       .  S
O1794      C1796   1.263       .  A
O1794     Al1795   1.920       .  S
Al1795     O1804   1.785       .  S
C1796      O1809   1.259       .  A
C1796      C2201   1.464       .  S
O1797      C1807   1.261       .  A
O1797     Al1799   1.927       .  S
O1798      C1811   1.267       .  A
O1798     Al1808   1.938       .  S
Al1799     O1812   1.869       .  S
Al1799     O1809   1.898       .  S
Al1799     O1804   1.784       .  S
O1800      C1807   1.251       .  A
O1800     Al1808   1.859       .  S
O1801      C1810   1.252       .  A
O1801     Al1808   1.876       .  S
O1802     Al1808   1.936       .  S
O1804     Al1808   1.774       .  S
O1805      C1806   1.268       .  A
C1806      C2121   1.475       .  S
C1807      C2137   1.472       .  S
C1810      C1873   1.484       .  S
C1811      O1812   1.256       .  A
C1811      C2185   1.482       .  S
O1813      C1828   1.269       .  A
C1814      O1824   1.271       .  A
C1814      O1815   1.265       .  A
C1814      C1865   1.482       .  S
O1815     Al1817   1.886       .  S
O1816      C1818   1.259       .  A
O1816     Al1817   1.905       .  S
Al1817     O1826   1.785       .  S
C1818      O1831   1.258       .  A
C1818      C1921   1.461       .  S
O1819      C1829   1.258       .  A
O1819     Al1821   1.913       .  S
O1820      C1833   1.269       .  A
O1820     Al1830   1.942       .  S
Al1821     O1834   1.864       .  S
Al1821     O1831   1.901       .  S
Al1821     O1826   1.787       .  S
O1822      C1829   1.253       .  A
O1822     Al1830   1.869       .  S
O1823      C1832   1.255       .  A
O1823     Al1830   1.892       .  S
O1824     Al1830   1.932       .  S
O1826     Al1830   1.784       .  S
O1827      C1828   1.267       .  A
C1828      C2041   1.473       .  S
C1829      C2049   1.469       .  S
C1832      C1897   1.469       .  S
C1833      O1834   1.257       .  A
C1833      C1945   1.483       .  S
O1835      C1850   1.261       .  A
O1835     Al1843   1.876       .  S
C1836      O1846   1.260       .  A
C1836      O1837   1.268       .  A
C1836      C1857   1.482       .  S
O1837     Al1839   1.928       .  S
O1838      C1840   1.255       .  A
O1838     Al1839   1.888       .  S
Al1839     O1847   1.880       .  S
Al1839     O1849   1.940       .  S
Al1839     O1848   1.775       .  S
C1840      O1853   1.260       .  A
C1840      C2025   1.484       .  S
O1841      C1851   1.265       .  A
O1841     Al1843   1.908       .  S
O1842      C1855   1.264       .  A
Al1843     O1853   1.932       .  S
Al1843     O1848   1.779       .  S
O1844      C1851   1.268       .  A
O1844     Al1852   1.933       .  S
O1845      C1854   1.264       .  A
O1845     Al1852   1.937       .  S
O1846     Al1852   1.880       .  S
O1847      C1854   1.255       .  A
O1848     Al1852   1.785       .  S
O1849      C1850   1.269       .  A
C1850      C1977   1.466       .  S
C1851      C1953   1.468       .  S
C1854      C1881   1.486       .  S
C1855      O1856   1.262       .  A
C1855      C2001   1.479       .  S
C1857      C1858   1.408       .  A
C1857      C1862   1.407       .  A
C1858      C1859   1.396       .  A
C1858      H1867   1.083       .  S
C1859      C1860   1.401       .  A
C1859      H1868   1.084       .  S
C1860      C1866   1.403       .  A
C1860      C1861   1.414       .  A
C1861      C1863   1.402       .  A
C1861      C1862   1.405       .  A
C1862      H1869   1.084       .  S
C1863      C1864   1.398       .  A
C1863      H1870   1.084       .  S
C1864      C1865   1.407       .  A
C1864      H1871   1.083       .  S
C1865      C1866   1.407       .  A
C1866      H1872   1.085       .  S
C1873      C1878   1.406   1_565  A
C1874      C1875   1.400       .  A
C1874      H1883   1.083       .  S
C1875      C1876   1.402   1_556  A
C1875      H1884   1.084       .  S
C1876      C1882   1.410       .  A
C1877      C1879   1.400   1_556  A
C1877      C1878   1.408       .  A
C1878      H1885   1.084       .  S
C1879      C1880   1.397       .  A
C1879      H1886   1.084       .  S
C1880      H1887   1.083       .  S
C1881      C1882   1.408       .  A
C1882      H1888   1.084       .  S
C1889      C1894   1.406       .  A
C1890      C1891   1.399       .  A
C1890      H1899   1.083       .  S
C1891      C1892   1.403   1_556  A
C1891      H1900   1.084       .  S
C1892      C1898   1.404       .  A
C1893      C1895   1.402   1_556  A
C1893      C1894   1.402       .  A
C1894      H1901   1.084       .  S
C1895      C1896   1.396       .  A
C1895      H1902   1.084       .  S
C1896      H1903   1.083       .  S
C1897      C1898   1.405       .  A
C1898      H1904   1.084       .  S
C1905      C1906   1.408       .  A
C1905      C1910   1.409       .  A
C1906      C1907   1.400       .  A
C1906      H1915   1.083       .  S
C1907      C1908   1.402       .  A
C1907      H1916   1.084       .  S
C1908      C1914   1.412       .  A
C1908      C1909   1.415       .  A
C1909      C1911   1.402       .  A
C1909      C1910   1.413       .  A
C1910      H1917   1.084       .  S
C1911      C1912   1.401       .  A
C1911      H1918   1.083       .  S
C1912      C1913   1.409       .  A
C1912      H1919   1.083       .  S
C1913      C1914   1.410       .  A
C1914      H1920   1.084       .  S
C1921      C1926   1.405       .  A
C1922      C1923   1.396       .  A
C1922      H1931   1.084       .  S
C1923      C1924   1.404       .  A
C1923      H1932   1.082       .  S
C1924      C1930   1.396   1_455  A
C1925      C1927   1.407       .  A
C1925      C1926   1.406       .  A
C1926      H1933   1.084       .  S
C1927      C1928   1.403       .  A
C1927      H1934   1.083       .  S
C1928      H1935   1.083       .  S
C1929      C1930   1.400       .  A
C1930      H1936   1.081   1_655  S
C1937      C1938   1.403       .  A
C1938      C1939   1.391       .  A
C1938      H1947   1.083       .  S
C1939      C1940   1.400       .  A
C1939      H1948   1.084       .  S
C1940      C1946   1.395   1_655  A
C1941      C1943   1.406       .  A
C1941      C1942   1.408       .  A
C1942      H1949   1.084       .  S
C1943      C1944   1.404       .  A
C1943      H1950   1.084       .  S
C1944      C1945   1.405       .  A
C1944      H1951   1.083       .  S
C1946      H1952   1.084   1_455  S
C1953      C1958   1.403       .  A
C1954      C1955   1.394       .  A
C1954      H1963   1.084       .  S
C1955      C1956   1.402       .  A
C1955      H1964   1.084       .  S
C1956      C1962   1.400       .  A
C1957      C1959   1.403       .  A
C1957      C1958   1.405       .  A
C1958      H1965   1.085       .  S
C1959      C1960   1.398       .  A
C1959      H1966   1.083       .  S
C1960      H1967   1.083       .  S
C1961      C1962   1.406   1_565  A
C1962      H1968   1.084       .  S
C1969      C1974   1.404   1_565  A
C1970      C1971   1.399       .  A
C1970      H1979   1.083       .  S
C1971      C1972   1.405       .  A
C1971      H1980   1.084       .  S
C1972      C1978   1.401       .  A
C1972      C1973   1.413       .  A
C1973      C1975   1.404       .  A
C1974      H1981   1.085       .  S
C1975      C1976   1.397       .  A
C1975      H1982   1.084       .  S
C1976      C1977   1.401       .  A
C1976      H1983   1.083       .  S
C1977      C1978   1.405       .  A
C1978      H1984   1.085       .  S
C1985      C1986   1.409       .  A
C1985      C1990   1.405       .  A
C1986      C1987   1.395       .  A
C1986      H1995   1.083       .  S
C1987      C1988   1.399       .  A
C1987      H1996   1.084       .  S
C1988      C1994   1.407       .  A
C1988      C1989   1.417       .  A
C1989      C1991   1.400       .  A
C1989      C1990   1.410       .  A
C1990      H1997   1.084       .  S
C1991      C1992   1.398       .  A
C1991      H1998   1.084       .  S
C1992      C1993   1.409       .  A
C1992      H1999   1.083       .  S
C1993      C1994   1.405       .  A
C1994      H2000   1.085       .  S
C2001      C2002   1.404       .  A
C2001      C2006   1.406       .  A
C2002      C2003   1.404       .  A
C2002      H2011   1.083       .  S
C2003      C2004   1.407       .  A
C2003      H2012   1.083       .  S
C2004      C2010   1.409       .  A
C2004      C2005   1.414       .  A
C2005      C2007   1.401       .  A
C2005      C2006   1.400       .  A
C2006      H2013   1.085       .  S
C2007      C2008   1.394       .  A
C2007      H2014   1.084       .  S
C2008      C2009   1.403       .  A
C2008      H2015   1.084       .  S
C2009      C2010   1.408       .  A
C2010      H2016   1.084       .  S
C2017      C2018   1.404       .  A
C2017      C2022   1.406       .  A
C2018      C2019   1.408       .  A
C2018      H2027   1.083       .  S
C2019      C2020   1.410       .  A
C2019      H2028   1.083       .  S
C2020      C2026   1.412       .  A
C2020      C2021   1.412       .  A
C2021      C2023   1.400       .  A
C2021      C2022   1.398       .  A
C2022      H2029   1.084       .  S
C2023      C2024   1.392       .  A
C2023      H2030   1.084       .  S
C2024      C2025   1.405       .  A
C2024      H2031   1.083       .  S
C2025      C2026   1.413       .  A
C2026      H2032   1.084       .  S
C2033      C2034   1.401       .  A
C2033      C2038   1.404       .  A
C2034      C2035   1.391       .  A
C2034      H2043   1.084       .  S
C2035      C2036   1.400       .  A
C2035      H2044   1.084       .  S
C2036      C2042   1.395       .  A
C2036      C2037   1.414       .  A
C2037      C2039   1.406       .  A
C2037      C2038   1.406       .  A
C2038      H2045   1.084       .  S
C2039      C2040   1.402       .  A
C2039      H2046   1.084       .  S
C2040      C2041   1.404       .  A
C2040      H2047   1.083       .  S
C2041      C2042   1.403       .  A
C2042      H2048   1.085       .  S
C2049      C2050   1.403       .  A
C2049      C2054   1.407       .  A
C2050      C2051   1.389       .  A
C2050      H2059   1.084       .  S
C2051      C2052   1.399       .  A
C2051      H2060   1.084       .  S
C2052      C2058   1.394       .  A
C2052      C2053   1.413       .  A
C2053      C2055   1.406       .  A
C2053      C2054   1.406       .  A
C2054      H2061   1.084       .  S
C2055      C2056   1.403       .  A
C2055      H2062   1.083       .  S
C2056      C2057   1.405       .  A
C2056      H2063   1.083       .  S
C2057      C2058   1.405       .  A
C2058      H2064   1.084       .  S
C2065      C2066   1.408       .  A
C2065      C2070   1.405       .  A
C2066      C2067   1.396       .  A
C2066      H2075   1.083       .  S
C2067      C2068   1.399       .  A
C2067      H2076   1.084       .  S
C2068      C2074   1.406       .  A
C2068      C2069   1.416       .  A
C2069      C2071   1.400       .  A
C2069      C2070   1.406       .  A
C2070      H2077   1.084       .  S
C2071      C2072   1.396       .  A
C2071      H2078   1.084       .  S
C2072      C2073   1.408       .  A
C2072      H2079   1.083       .  S
C2073      C2074   1.405       .  A
C2074      H2080   1.084       .  S
C2081      C2082   1.402       .  A
C2081      C2086   1.406       .  A
C2082      C2083   1.398       .  A
C2082      H2091   1.083       .  S
C2083      C2084   1.404       .  A
C2083      H2092   1.083       .  S
C2084      C2090   1.399       .  A
C2084      C2085   1.413       .  A
C2085      C2087   1.405       .  A
C2085      C2086   1.399       .  A
C2086      H2093   1.085       .  S
C2087      C2088   1.397       .  A
C2087      H2094   1.084       .  S
C2088      C2089   1.399       .  A
C2088      H2095   1.083       .  S
C2089      C2090   1.402       .  A
C2090      H2096   1.085       .  S
C2097      C2098   1.400       .  A
C2097      C2102   1.401       .  A
C2098      C2099   1.396       .  A
C2098      H2107   1.084       .  S
C2099      C2100   1.404       .  A
C2099      H2108   1.084       .  S
C2100      C2106   1.398       .  A
C2100      C2101   1.414       .  A
C2101      C2103   1.404       .  A
C2101      C2102   1.401       .  A
C2102      H2109   1.085       .  S
C2103      C2104   1.399       .  A
C2103      H2110   1.084       .  S
C2104      C2105   1.403       .  A
C2104      H2111   1.083       .  S
C2105      C2106   1.407       .  A
C2106      H2112   1.085       .  S
C2113      C2114   1.404       .  A
C2113      C2118   1.409       .  A
C2114      C2115   1.391       .  A
C2114      H2123   1.084       .  S
C2115      C2116   1.399       .  A
C2115      H2124   1.084       .  S
C2116      C2122   1.397       .  A
C2116      C2117   1.414       .  A
C2117      C2119   1.407       .  A
C2117      C2118   1.409       .  A
C2118      H2125   1.084       .  S
C2119      C2120   1.404       .  A
C2119      H2126   1.084       .  S
C2120      C2121   1.403       .  A
C2120      H2127   1.083       .  S
C2121      C2122   1.404       .  A
C2122      H2128   1.085       .  S
C2129      C2130   1.404       .  A
C2129      C2134   1.403       .  A
C2130      C2131   1.403       .  A
C2130      H2139   1.083       .  S
C2131      C2132   1.406       .  A
C2131      H2140   1.084       .  S
C2132      C2138   1.407       .  A
C2132      C2133   1.414       .  A
C2133      C2135   1.398       .  A
C2133      C2134   1.394       .  A
C2134      H2141   1.085       .  S
C2135      C2136   1.389       .  A
C2135      H2142   1.084       .  S
C2136      C2137   1.406       .  A
C2136      H2143   1.084       .  S
C2137      C2138   1.407       .  A
C2138      H2144   1.084       .  S
C2145      C2150   1.404       .  A
C2146      C2147   1.394       .  A
C2146      H2155   1.083       .  S
C2147      C2148   1.399       .  A
C2147      H2156   1.084       .  S
C2148      C2154   1.402       .  A
C2149      C2151   1.400       .  A
C2149      C2150   1.405       .  A
C2150      H2157   1.085       .  S
C2151      C2152   1.396       .  A
C2151      H2158   1.084       .  S
C2152      H2159   1.083       .  S
C2153      C2154   1.402   1_655  A
C2154      H2160   1.085       .  S
C2161      C2162   1.406       .  A
C2161      C2166   1.405       .  A
C2162      C2163   1.396       .  A
C2162      H2171   1.083       .  S
C2163      C2164   1.400       .  A
C2163      H2172   1.084       .  S
C2164      C2170   1.405       .  A
C2164      C2165   1.415       .  A
C2165      C2167   1.401       .  A
C2165      C2166   1.406       .  A
C2166      H2173   1.084       .  S
C2167      C2168   1.397       .  A
C2167      H2174   1.084       .  S
C2168      C2169   1.408       .  A
C2168      H2175   1.083       .  S
C2169      C2170   1.405       .  A
C2170      H2176   1.084       .  S
C2177      C2178   1.400       .  A
C2177      C2182   1.403       .  A
C2178      H2187   1.083       .  S
C2179      C2180   1.404       .  A
C2179      H2188   1.084       .  S
C2180      C2186   1.400       .  A
C2180      C2181   1.413   1_545  A
C2181      C2183   1.405       .  A
C2182      H2189   1.085       .  S
C2183      C2184   1.402       .  A
C2183      H2190   1.084       .  S
C2184      C2185   1.404       .  A
C2184      H2191   1.083       .  S
C2185      C2186   1.409   1_565  A
C2186      H2192   1.084       .  S
C2193      C2194   1.403       .  A
C2193      C2198   1.407       .  A
C2194      C2195   1.401       .  A
C2194      H2203   1.083       .  S
C2195      C2196   1.405       .  A
C2195      H2204   1.084       .  S
C2196      C2202   1.406       .  A
C2196      C2197   1.414       .  A
C2197      C2198   1.403       .  A
C2198      H2205   1.085       .  S
C2199      C2200   1.395       .  A
C2199      H2206   1.084       .  S
C2200      C2201   1.400       .  A
C2200      H2207   1.084       .  S
C2202      H2208   1.085       .  S
C2209      C2214   1.408       .  A
C2210      C2211   1.391       .  A
C2210      H2219   1.083       .  S
C2211      C2212   1.400       .  A
C2211      H2220   1.084       .  S
C2212      C2218   1.394   1_455  A
C2213      C2215   1.407       .  A
C2213      C2214   1.409       .  A
C2214      H2221   1.084       .  S
C2215      H2222   1.083       .  S
C2216      C2217   1.403       .  A
C2217      C2218   1.405       .  A
C2218      H2224   1.085   1_655  S
C2225      C2226   1.404       .  A
C2225      C2230   1.403       .  A
C2226      C2227   1.403       .  A
C2226      H2235   1.083       .  S
C2227      C2228   1.407       .  A
C2227      H2236   1.083       .  S
C2228      C2229   1.413       .  A
C2229      C2231   1.398       .  A
C2229      C2230   1.393       .  A
C2230      H2237   1.085       .  S
C2231      H2238   1.084       .  S
C2232      C2233   1.404       .  A
C2232      H2239   1.084       .  S
C2233      C2234   1.408   1_655  A
C2234      H2240   1.084       .  S
