geometry optimzed in LAMMPS
_audit_creation_date              2020-12-01 
_audit_creation_method            'lammps2cif' 
_symmetry_space_group_name_H-M    'P1' 
_symmetry_Int_Tables_number       1 
_symmetry_cell_setting            triclinic 
loop_ 
_symmetry_equiv_pos_as_xyz 
  x,y,z 
_cell_length_a                    33.66754747 
_cell_length_b                    33.63670421300322 
_cell_length_c                    96.2089750146816 
_cell_angle_alpha                 89.8447993508041 
_cell_angle_beta                  90.21108340329981 
_cell_angle_gamma                 119.95762981610451 
loop_ 
_atom_site_label 
_atom_site_type_symbol 
_atom_site_fract_x 
_atom_site_fract_y 
_atom_site_fract_z 
_atom_site_charge 
O1          O  0.84322709  0.14127477  0.60776766    -0.81100
O2          O  0.88577097  0.18238952  0.54525366    -0.65800
O3          O  0.88008373  0.19696137  0.58431276    -1.12400
C4          C  0.72976370  0.16885538  0.57379216     1.05800
O5          O  0.85746119  0.22771797  0.54047646    -0.79000
O6          O  0.82625022  0.25949254  0.56077686    -0.66600
Ni7        Ni  0.89845413  0.16573072  0.59706433     1.34900
C8          C  0.83504681  0.27222714  0.57334611     0.84500
O9          O  0.94599963  0.20038681  0.56534543    -0.79600
O10         O  0.95556110  0.18686993  0.58761284    -0.89800
C11         C  0.88397440  0.21204446  0.53760505     0.84100
O12         O  0.87235648  0.10852748  0.58755793    -0.68000
O13         O  0.74424530  0.18014534  0.56131163    -0.87300
C14         C  0.86041398  0.09639030  0.57506148     0.84900
C15         C  0.96921635  0.19573594  0.57506191     1.06500
H16         H  0.80191088  0.14111871  0.56319680     0.38300
O17         O  0.82115018  0.17359359  0.56490702    -1.10000
O18         O  0.83469635  0.24639773  0.58317977    -0.66600
Ni19       Ni  0.81709377  0.18193885  0.58443046     1.26300
O20         O  0.86283680  0.12364205  0.56556338    -0.66900
O21         O  0.75388813  0.16636200  0.58368016    -0.79200
C22         C  0.82456420  0.16295178  0.61259832     0.84300
O23         O  0.81558799  0.18747316  0.60446374    -0.66300
Ni24       Ni  0.80180184  0.20227933  0.55159314     1.27400
Ni25       Ni  0.88375113  0.18804095  0.56484462     1.26100
H26         H  0.89918075  0.22935664  0.58617074     0.38800
O27         O  0.13436925  0.30821920  0.38785675    -0.81100
O28         O  0.11524462  0.30607396  0.45309649    -0.65800
O29         O  0.11640706  0.32821464  0.41425769    -1.12400
C30         C  0.27221312  0.44141861  0.42387158     1.05800
O31         O  0.14689650  0.37951951  0.45820188    -0.79000
O32         O  0.17895987  0.44274116  0.43781316    -0.66600
Ni33       Ni  0.09309249  0.27543321  0.40243496     1.34900
C34         C  0.17116842  0.44891714  0.42532115     0.84500
O35         O  0.05015256  0.27290766  0.43417480    -0.79600
O36         O  0.04598025  0.23453024  0.41498007    -0.89800
C37         C  0.11962417  0.33751469  0.46111906     0.84100
O38         O  0.13477950  0.25730529  0.40936309    -0.68000
O39         O  0.25850204  0.43980490  0.43635494    -0.87300
C40         C  0.13760353  0.24719736  0.42190654     0.84900
C41         C  0.02937240  0.23806216  0.42640501     1.06500
H42         H  0.19530690  0.34301030  0.43453544     0.38300
O43         O  0.17848486  0.35868315  0.43311293    -1.10000
O44         O  0.17001215  0.42337023  0.41531330    -0.66600
Ni45       Ni  0.18160495  0.37221411  0.41367991     1.26300
O46         O  0.12733949  0.26484097  0.43202189    -0.66900
O47         O  0.24654720  0.41573341  0.41406499    -0.79200
C48         C  0.16575591  0.34839580  0.38485506     0.84300
O49         O  0.18349915  0.38073881  0.39376440    -0.66300
Ni50       Ni  0.20144103  0.40707251  0.44648385     1.27400
Ni51       Ni  0.11468524  0.31531216  0.43372930     1.26100
H52         H  0.09908546  0.34351812  0.41255020     0.38800
O53         O  0.14722386  0.85886200  0.39241990    -0.81100
O54         O  0.18382959  0.89965644  0.45450110    -0.65800
O55         O  0.20127566  0.89716072  0.41564764    -1.12400
C56         C  0.16788367  0.74388760  0.42550379     1.05800
O57         O  0.22822584  0.87008907  0.45915947    -0.79000
O58         O  0.25833501  0.83406674  0.43952019    -0.66600
Ni59       Ni  0.16841505  0.91397224  0.40297670     1.34900
C60         C  0.27408889  0.84618405  0.42733388     0.84500
O61         O  0.20482226  0.96240288  0.43467533    -0.79600
O62         O  0.18596023  0.97033142  0.41276286    -0.89800
C63         C  0.21263072  0.89659200  0.46220374     0.84100
O64         O  0.11056653  0.88498034  0.41192616    -0.68000
O65         O  0.17580908  0.75643158  0.43825861    -0.87300
C66         C  0.09886289  0.87633596  0.42453789     0.84900
C67         C  0.19789064  0.98493813  0.42517930     1.06500
H68         H  0.14264954  0.81745724  0.43559845     0.38300
O69         O  0.17549311  0.83638655  0.43452034    -1.10000
O70         O  0.25160625  0.85162812  0.41747205    -0.66600
Ni71       Ni  0.18725049  0.83425314  0.41525659     1.26300
O72         O  0.12663877  0.88048416  0.43411880    -0.66900
O73         O  0.17101439  0.77070578  0.41559808    -0.79200
C74         C  0.17336144  0.84563822  0.38744074     0.84300
O75         O  0.19692504  0.83543491  0.39550511    -0.66300
Ni76       Ni  0.20073933  0.81418966  0.44809026     1.27400
Ni77       Ni  0.19082610  0.89937595  0.43498629     1.26100
H78         H  0.23360564  0.91695025  0.41388964     0.38800
O79         O  0.30559511  0.18507631  0.60860691    -0.81100
O80         O  0.29950093  0.12852320  0.54697904    -0.65800
O81         O  0.32189405  0.14207230  0.58596520    -1.12400
C82         C  0.44090185  0.29086855  0.57348945     1.05800
O83         O  0.37284904  0.15858781  0.54161217    -0.79000
O84         O  0.43706720  0.19304219  0.56181541    -0.66600
Ni85       Ni  0.27263569  0.12857466  0.59843517     1.34900
C86         C  0.44237047  0.18683692  0.57453648     0.84500
O87         O  0.25975188  0.07197379  0.56801391    -0.79600
O88         O  0.23490577  0.07051159  0.58971217    -0.89800
C89         C  0.33053831  0.13125602  0.53905042     0.84100
O90         O  0.24383279  0.15577661  0.58797774    -0.68000
O91         O  0.43841686  0.27445596  0.56131539    -0.87300
C92         C  0.24196527  0.16252079  0.57505970     0.84900
C93         C  0.23099076  0.05243686  0.57780555     1.06500
H94         H  0.34182372  0.21586324  0.56348594     0.38300
O95         O  0.35565789  0.19735113  0.56557272    -1.10000
O96         O  0.41725313  0.18826329  0.58425598    -0.66600
Ni97       Ni  0.36930100  0.20475826  0.58503306     1.26300
O98         O  0.26443769  0.15452670  0.56608931    -0.66900
O99         O  0.41472924  0.26784864  0.58346356    -0.79200
C100        C  0.34630874  0.20263752  0.61313765     0.84300
O101        O  0.37855816  0.20948531  0.60489260    -0.66300
Ni102      Ni  0.40314399  0.21555299  0.55221200     1.27400
Ni103      Ni  0.30855586  0.13446047  0.56648210     1.26100
H104        H  0.33498243  0.12328577  0.58857356     0.38800
O105        O  0.70662266  0.86749434  0.39632945    -0.81100
O106        O  0.71100167  0.83012921  0.45851194    -0.65800
O107        O  0.69239438  0.81418297  0.41951125    -1.12400
C108        C  0.56778747  0.83958292  0.42956318     1.05800
O109        O  0.63787149  0.78063616  0.46246593    -0.79000
O110        O  0.57182918  0.74957702  0.44237519    -0.66600
Ni111      Ni  0.74145827  0.84713206  0.40687426     1.34900
C112        C  0.57190546  0.73370245  0.43045063     0.84500
O113        O  0.75337165  0.81113164  0.43861876    -0.79600
O114        O  0.77977468  0.82900607  0.41668763    -0.89800
C115        C  0.68007923  0.79898924  0.46590246     0.84100
O116        O  0.77094949  0.90497573  0.41597891    -0.68000
O117        O  0.57242724  0.83028297  0.44217655    -0.87300
C118        C  0.77321919  0.91710018  0.42854562     0.84900
C119        C  0.78188620  0.81656190  0.42910451     1.06500
H120        H  0.66716923  0.86916007  0.43977280     0.38300
O121        O  0.65488722  0.83665619  0.43839759    -1.10000
O122        O  0.59907755  0.75916297  0.42091217    -0.66600
Ni123      Ni  0.64158128  0.82496450  0.41901005     1.26300
O124        O  0.74857848  0.88958167  0.43810464    -0.66900
O125        O  0.59157360  0.83755104  0.41950489    -0.79200
C126        C  0.66803684  0.83964658  0.39108250     0.84300
O127        O  0.63405114  0.81586905  0.39905266    -0.66300
Ni128      Ni  0.60703148  0.80676692  0.45165612     1.27400
Ni129      Ni  0.70427924  0.82422395  0.43888285     1.26100
H130        H  0.68115754  0.78200904  0.41778161     0.38800
O131        O  0.87299655  0.70737924  0.61235499    -0.81100
O132        O  0.83791551  0.71979916  0.55092281    -0.65800
O133        O  0.82029915  0.69646735  0.58965586    -1.12400
C134        C  0.84842805  0.57420979  0.57855737     1.05800
O135        O  0.79185462  0.64684768  0.54574715    -0.79000
O136        O  0.76056920  0.57918301  0.56481105    -0.66600
Ni137      Ni  0.85386839  0.74432924  0.60270184     1.34900
C138        C  0.74426699  0.57593989  0.57687316     0.84500
O139        O  0.82022285  0.76111404  0.57135762    -0.79600
O140        O  0.83657923  0.78406564  0.59364115    -0.89800
C141        C  0.80770408  0.68937105  0.54316926     0.84100
O142        O  0.91197927  0.77438322  0.59367448    -0.68000
O143        O  0.84180102  0.58122530  0.56586113    -0.87300
C144        C  0.92387648  0.77591606  0.58111396     0.84900
C145        C  0.82670583  0.78910965  0.58119498     1.06500
H146        H  0.87703211  0.67428160  0.56942820     0.38300
O147        O  0.84434400  0.66145688  0.57044621    -1.10000
O148        O  0.76691800  0.60214149  0.58697512    -0.66600
Ni149      Ni  0.83155892  0.64581989  0.58966980     1.26300
O150        O  0.89588908  0.75272778  0.57155741    -0.66900
O151        O  0.84479238  0.59633720  0.58882304    -0.79200
C152        C  0.84315579  0.66969672  0.61753213     0.84300
O153        O  0.82010533  0.63579440  0.60947225    -0.66300
Ni154      Ni  0.81831634  0.61612195  0.55639724     1.27400
Ni155      Ni  0.83121658  0.71054977  0.57045479     1.26100
H156        H  0.78811873  0.68499825  0.59137444     0.38800
O157        O  0.04109922  0.53871208  0.05786089    -0.81100
O158        O  0.06321464  0.50203406  0.11837273    -0.65800
O159        O  0.03333894  0.48345142  0.07991768    -1.12400
C160        C  0.91128266  0.50747044  0.09318334     1.05800
O161        O  0.99129084  0.45467737  0.12453602    -0.79000
O162        O  0.92254346  0.41908925  0.10595014    -0.66600
Ni163      Ni  0.07871062  0.51800587  0.06629668     1.34900
C164        C  0.91430167  0.40540122  0.09347392     0.84500
O165        O  0.10344214  0.48717618  0.09687385    -0.79600
O166        O  0.11991215  0.50041927  0.07406824    -0.89800
C167        C  0.03428780  0.47212843  0.12653827     0.84100
O168        O  0.10968287  0.57568121  0.07549591    -0.68000
O169        O  0.91745972  0.49752861  0.10559384    -0.87300
C170        C  0.11124588  0.58818755  0.08797717     0.84900
C171        C  0.12889880  0.49296764  0.08635877     1.06500
H172        H  0.01208508  0.53819424  0.10154347     0.38300
O173        O  0.00031678  0.50578145  0.10013166    -1.10000
O174        O  0.93768796  0.43012673  0.08321651    -0.66600
Ni175      Ni  0.98296270  0.49465836  0.08099429     1.26300
O176        O  0.09006641  0.56033774  0.09774899    -0.66900
O177        O  0.93494270  0.50847465  0.08275922    -0.79200
C178        C  0.00224607  0.51052966  0.05302532     0.84300
O179        O  0.97029235  0.48510605  0.06131652    -0.66300
Ni180      Ni  0.95648224  0.47743080  0.11441430     1.27400
Ni181      Ni  0.05088654  0.49503246  0.09896554     1.26100
H182        H  0.02172129  0.45126058  0.07808818     0.38800
O183        O  0.21419779  0.37423763  0.27626250    -0.81100
O184        O  0.16782614  0.38236871  0.21465709    -0.65800
O185        O  0.15772630  0.36345732  0.25381628    -1.12400
C186        C  0.17452427  0.23516174  0.24176557     1.05800
O187        O  0.11527150  0.30959896  0.21106768    -0.79000
O188        O  0.08576214  0.24147272  0.23101419    -0.66600
Ni189      Ni  0.19505698  0.41144132  0.26640633     1.34900
C190        C  0.07414422  0.24087504  0.24360837     0.84500
O191        O  0.15772280  0.42892144  0.23549688    -0.79600
O192        O  0.17889833  0.45249566  0.25755069    -0.89800
C193        C  0.13622374  0.35163974  0.20726385     0.84100
O194        O  0.25088519  0.43704838  0.25627478    -0.68000
O195        O  0.16563872  0.24147334  0.22926268    -0.87300
C196        C  0.26060584  0.43673363  0.24357178     0.84900
C197        C  0.16686582  0.45753703  0.24538355     1.06500
H198        H  0.20578482  0.33470598  0.23208433     0.38300
O199        O  0.17385548  0.32399086  0.23399541    -1.10000
O200        O  0.10049501  0.26980859  0.25262122    -0.66600
Ni201      Ni  0.16595823  0.31106620  0.25337756     1.26300
O202        O  0.23060754  0.41493404  0.23429492    -0.66900
O203        O  0.17513873  0.25924359  0.25210529    -0.79200
C204        C  0.18623826  0.33526490  0.28123912     0.84300
O205        O  0.15983626  0.30290056  0.27317550    -0.66300
Ni206      Ni  0.14129796  0.27692986  0.22081063     1.27400
Ni207      Ni  0.16494123  0.37572472  0.23435278     1.26100
H208        H  0.12621490  0.35346455  0.25613616     0.38800
O209        O  0.65334384  0.83102809  0.28036823    -0.81100
O210        O  0.64488475  0.78457847  0.21914319    -0.65800
O211        O  0.66374974  0.78649480  0.25829735    -1.12400
C212        C  0.79646601  0.92939870  0.24725264     1.05800
O213        O  0.71498619  0.79814080  0.21585977    -0.79000
O214        O  0.78297700  0.83134996  0.23558258    -0.66600
Ni215      Ni  0.61606875  0.77434669  0.27100500     1.34900
C216        C  0.78317581  0.81845369  0.24798754     0.84500
O217        O  0.59634724  0.72638499  0.23964199    -0.79600
O218        O  0.57618039  0.71688783  0.26220676    -0.89800
C219        C  0.67352992  0.78040152  0.21164794     0.84100
O220        O  0.58755460  0.80301130  0.26136106    -0.68000
O221        O  0.78916779  0.91455189  0.23470278    -0.87300
C222        C  0.59124409  0.81936806  0.24924668     0.84900
C223        C  0.56967908  0.70337144  0.24959978     1.06500
H224        H  0.69675495  0.86693310  0.23753442     0.38300
O225        O  0.70541648  0.84392046  0.23917725    -1.10000
O226        O  0.75675390  0.81864708  0.25743725    -0.66600
Ni227      Ni  0.71798075  0.84603856  0.25860783     1.26300
O228        O  0.61585091  0.81584052  0.23987820    -0.66900
O229        O  0.77211468  0.90608456  0.25765296    -0.79200
C230        C  0.69019802  0.83886315  0.28623032     0.84300
O231        O  0.72414379  0.84544973  0.27871984    -0.66300
Ni232      Ni  0.75087413  0.85608514  0.22583568     1.27400
Ni233      Ni  0.65148060  0.78521536  0.23894789     1.26100
H234        H  0.67257765  0.76365933  0.26003257     0.38800
O235        O  0.49062301  0.51778523  0.05561993    -0.81100
O236        O  0.53403403  0.58250522  0.11579148    -0.65800
O237        O  0.54842654  0.56538964  0.07726075    -1.12400
C238        C  0.51875960  0.41787698  0.09193270     1.05800
O239        O  0.57724375  0.55341668  0.12214987    -0.79000
O240        O  0.60886046  0.51551790  0.10393825    -0.66600
Ni241      Ni  0.51524648  0.57754954  0.06340451     1.34900
C242        C  0.62232122  0.52066544  0.09144807     0.84500
O243        O  0.55179477  0.63639773  0.09328554    -0.79600
O244        O  0.53704947  0.63794563  0.07045901    -0.89800
C245        C  0.56068790  0.57950639  0.12456262     0.84100
O246        O  0.45858656  0.55543365  0.07288803    -0.68000
O247        O  0.52854876  0.43471174  0.10423191    -0.87300
C248        C  0.44677859  0.54680864  0.08550648     0.84900
C249        C  0.54710355  0.65607772  0.08250308     1.06500
H250        H  0.49184774  0.49298338  0.09956973     0.38300
O251        O  0.52443648  0.51174376  0.09802927    -1.10000
O252        O  0.59813878  0.52022765  0.08112090    -0.66600
Ni253      Ni  0.53411248  0.50292081  0.07895636     1.26300
O254        O  0.47469642  0.55282057  0.09523937    -0.66900
O255        O  0.51809833  0.44027439  0.08131274    -0.79200
C256        C  0.51679979  0.50435517  0.05092244     0.84300
O257        O  0.54207079  0.49751078  0.05928135    -0.66300
Ni258      Ni  0.55138650  0.49491167  0.11249002     1.27400
Ni259      Ni  0.53932299  0.57447974  0.09626064     1.26100
H260        H  0.58068012  0.58432800  0.07521043     0.38800
O261        O  0.50912635  0.98768365  0.05401590    -0.81100
O262        O  0.45583854  0.96546388  0.11548634    -0.65800
O263        O  0.46455138  0.99481746  0.07689846    -1.12400
C264        C  0.61358634  0.11340650  0.09004318     1.05800
O265        O  0.48148583  0.03721972  0.12129015    -0.79000
O266        O  0.52098203  0.10873827  0.10339144    -0.66600
Ni267      Ni  0.45286324  0.94881241  0.06335325     1.34900
C268        C  0.51136318  0.11567921  0.09120929     0.84500
O269        O  0.39807123  0.92769118  0.09411383    -0.79600
O270        O  0.39571088  0.90639559  0.07184742    -0.89800
C271        C  0.45669990  0.99452619  0.12397975     0.84100
O272        O  0.48332741  0.92069293  0.07218100    -0.68000
O273        O  0.59918243  0.10493847  0.10263777    -0.87300
C274        C  0.49229676  0.91722987  0.08476772     0.84900
C275        C  0.37834629  0.90042992  0.08395485     1.06500
H276        H  0.54147899  0.01341692  0.09769859     0.38300
O277        O  0.52168802  0.02641276  0.09676016    -1.10000
O278        O  0.50712475  0.09003007  0.08086378    -0.66600
Ni279      Ni  0.52631910  0.04496563  0.07777647     1.26300
O280        O  0.48276414  0.93584200  0.09464427    -0.66900
O281        O  0.58872727  0.09300272  0.07946083    -0.79200
C282        C  0.51841438  0.02661246  0.04946851     0.84300
O283        O  0.52716614  0.05849538  0.05812907    -0.66300
Ni284      Ni  0.53976784  0.06929643  0.11138905     1.27400
Ni285      Ni  0.45966942  0.97769501  0.09598550     1.26100
H286        H  0.44401857  0.00653903  0.07511503     0.38800
O287        O  0.18966963  0.81519813  0.27811781    -0.81100
O288        O  0.25005196  0.86178701  0.21744370    -0.65800
O289        O  0.23725465  0.87218576  0.25638115    -1.12400
C290        C  0.09081693  0.84865513  0.24266919     1.05800
O291        O  0.22662663  0.91092708  0.21289490    -0.79000
O292        O  0.18558269  0.93919777  0.23182682    -0.66600
Ni293      Ni  0.24752226  0.83550752  0.26937434     1.34900
C294        C  0.19750687  0.95252648  0.24425671     0.84500
O295        O  0.30542435  0.87478278  0.23930904    -0.79600
O296        O  0.30603505  0.85318882  0.26146779    -0.89800
C297        C  0.24977549  0.89177538  0.20949445     0.84100
O298        O  0.21997411  0.77958032  0.25922246    -0.68000
O299        O  0.10648583  0.85731910  0.23022504    -0.87300
C300        C  0.21096764  0.76969257  0.24647573     0.84900
C301        C  0.32433356  0.86610804  0.24952059     1.06500
H302        H  0.16266597  0.82103822  0.23421905     0.38300
O303        O  0.18279723  0.85333387  0.23598191    -1.10000
O304        O  0.19931686  0.92715735  0.25378417    -0.66600
Ni305      Ni  0.17614968  0.86208393  0.25519460     1.26300
O306        O  0.21976388  0.79976194  0.23719410    -0.66900
O307        O  0.11468322  0.85076014  0.25327600    -0.79200
C308        C  0.17900295  0.84337362  0.28305737     0.84300
O309        O  0.17266506  0.86936636  0.27489098    -0.66300
Ni310      Ni  0.16710356  0.88322650  0.22216997     1.27400
Ni311      Ni  0.24431307  0.86505300  0.23711393     1.26100
H312        H  0.25795176  0.90387529  0.25879348     0.38800
O313        O  0.83006297  0.65693023  0.72614609    -0.81100
O314        O  0.80889588  0.65873577  0.78962482    -0.65800
O315        O  0.79863690  0.67318708  0.75083722    -1.12400
C316        C  0.95214867  0.79733322  0.75689852     1.05800
O317        O  0.83439763  0.73260165  0.79310402    -0.79000
O318        O  0.86462600  0.79664189  0.77281477    -0.66600
Ni319      Ni  0.77965622  0.62275405  0.73843385     1.34900
C320        C  0.84927145  0.79825240  0.76090812     0.84500
O321        O  0.74174373  0.61032784  0.77159158    -0.79600
O322        O  0.72764141  0.58379595  0.74967822    -0.89800
C323        C  0.81009979  0.69073688  0.79681399     0.84100
O324        O  0.81379525  0.59726153  0.74641671    -0.68000
O325        O  0.94313075  0.79376088  0.76995353    -0.87300
C326        C  0.83007430  0.59870428  0.75842955     0.84900
C327        C  0.71737286  0.58005477  0.76253628     1.06500
H328        H  0.88496460  0.70069214  0.76862762     0.38300
O329        O  0.86421165  0.71264946  0.76803956    -1.10000
O330        O  0.84131104  0.76882899  0.75139390    -0.66600
Ni331      Ni  0.86029090  0.72361715  0.74882215     1.26300
O332        O  0.82715942  0.62191578  0.76832805    -0.66900
O333        O  0.92292938  0.77267147  0.74760856    -0.79200
C334        C  0.84089670  0.69593493  0.72121948     0.84300
O335        O  0.85293265  0.72993180  0.72926071    -0.66300
Ni336      Ni  0.88794212  0.76119716  0.78105576     1.27400
Ni337      Ni  0.80296539  0.66272111  0.77014627     1.26100
H338        H  0.77744625  0.68447788  0.74978224     0.38800
O339        O  0.50654088  0.48219020  0.94033626    -0.81100
O340        O  0.57718203  0.54310492  0.88150801    -0.65800
O341        O  0.55810093  0.54341913  0.92038874    -1.12400
C342        C  0.41347620  0.52388808  0.90563715     1.05800
O343        O  0.55240313  0.59199057  0.87757259    -0.79000
O344        O  0.50828184  0.61527063  0.89686773    -0.66600
Ni345      Ni  0.56548157  0.50292637  0.93244881     1.34900
C346        C  0.52042108  0.62718398  0.90939040     0.84500
O347        O  0.62872023  0.54986817  0.90359140    -0.79600
O348        O  0.62506662  0.52165894  0.92511360    -0.89800
C349        C  0.57742054  0.57482982  0.87430072     0.84100
O350        O  0.53857726  0.44972566  0.92114086    -0.68000
O351        O  0.43049440  0.53276881  0.89339563    -0.87300
C352        C  0.53326811  0.44350288  0.90815321     0.84900
C353        C  0.64578489  0.53824639  0.91365234     1.06500
H354        H  0.48676619  0.49768989  0.89737286     0.38300
O355        O  0.50658938  0.52968953  0.89961080    -1.10000
O356        O  0.52245110  0.60088187  0.91856844    -0.66600
Ni357      Ni  0.49756801  0.53518414  0.91896012     1.26300
O358        O  0.54421730  0.47582801  0.89950508    -0.66900
O359        O  0.43654177  0.52602545  0.91653051    -0.79200
C360        C  0.49862936  0.51070070  0.94642431     0.84300
O361        O  0.49238007  0.53854347  0.93899650    -0.66300
Ni362      Ni  0.49203738  0.56153155  0.88615868     1.27400
Ni363      Ni  0.56803724  0.54092703  0.90107528     1.26100
H364        H  0.57893991  0.57425139  0.92355402     0.38800
O365        O  0.38645753  0.23199580  0.72348407    -0.81100
O366        O  0.38732916  0.17861679  0.78480230    -0.65800
O367        O  0.36954410  0.17112477  0.74557355    -1.12400
C368        C  0.24613350  0.19589930  0.75688960     1.05800
O369        O  0.31385874  0.13094763  0.78904420    -0.79000
O370        O  0.25045340  0.10148698  0.76820059    -0.66600
Ni371      Ni  0.41991072  0.20880949  0.73361498     1.34900
C372        C  0.24654207  0.09139650  0.75537774     0.84500
O373        O  0.43204990  0.16628168  0.76421084    -0.79600
O374        O  0.45761521  0.18838454  0.74245485    -0.89800
C375        C  0.35612433  0.14845778  0.79233996     0.84100
O376        O  0.44817774  0.26426868  0.74442623    -0.68000
O377        O  0.24782460  0.18099749  0.76903884    -0.87300
C378        C  0.44732276  0.27220081  0.75730401     0.84900
C379        C  0.46139717  0.17537395  0.75459652     1.06500
H380        H  0.34350880  0.22093524  0.76767804     0.38300
O381        O  0.33134817  0.18892189  0.76545547    -1.10000
O382        O  0.27326412  0.11879593  0.74603733    -0.66600
Ni383      Ni  0.32008800  0.18378922  0.74587502     1.26300
O384        O  0.42225960  0.24121775  0.76587304    -0.66900
O385        O  0.27272165  0.19926142  0.74698395    -0.79200
C386        C  0.34717748  0.20698449  0.71813554     0.84300
O387        O  0.31372986  0.18051700  0.72589445    -0.66300
Ni388      Ni  0.28292965  0.15715436  0.77831498     1.27400
Ni389      Ni  0.38072027  0.17641392  0.76515618     1.26100
H390        H  0.35785173  0.13949562  0.74292996     0.38800
O391        O  0.55066515  0.05746379  0.93958988    -0.81100
O392        O  0.50873489  0.06858790  0.87834544    -0.65800
O393        O  0.49428680  0.04415744  0.91722695    -1.12400
C394        C  0.52376339  0.92395412  0.90506994     1.05800
O395        O  0.46293044  0.99527294  0.87317364    -0.79000
O396        O  0.43202214  0.92802135  0.89249045    -0.66600
Ni397      Ni  0.52743318  0.09190863  0.93036898     1.34900
C398        C  0.41868686  0.92337084  0.90498792     0.84500
O399        O  0.49271072  0.10990688  0.89937175    -0.79600
O400        O  0.50647297  0.12964748  0.92193368    -0.89800
C401        C  0.47909739  0.03775432  0.87050630     0.84100
O402        O  0.58449506  0.12378884  0.92084555    -0.68000
O403        O  0.51233474  0.92860216  0.89272082    -0.87300
C404        C  0.59655057  0.12435677  0.90835035     0.84900
C405        C  0.49712814  0.13608880  0.90957001     1.06500
H406        H  0.54964497  0.02318662  0.89579737     0.38300
O407        O  0.51717134  0.01023127  0.89737604    -1.10000
O408        O  0.44349869  0.94895067  0.91493676    -0.66600
Ni409      Ni  0.50798538  0.99525114  0.91670747     1.26300
O410        O  0.56865064  0.10111362  0.89876919    -0.66900
O411        O  0.52418742  0.94828912  0.91529690    -0.79200
C412        C  0.52361736  0.01867325  0.94474812     0.84300
O413        O  0.50001432  0.98512425  0.93663217    -0.66300
Ni414      Ni  0.48912896  0.96411806  0.88358659     1.27400
Ni415      Ni  0.50371960  0.05911951  0.89794801     1.26100
H416        H  0.46203786  0.03145700  0.91916033     0.38800
O417        O  0.98614466  0.52380343  0.94313051    -0.81100
O418        O  0.97705409  0.47461028  0.88243719    -0.65800
O419        O  0.99878304  0.47971859  0.92145908    -1.12400
C420        C  0.12632048  0.62526127  0.90975306     1.05800
O421        O  0.04826417  0.49190889  0.87852144    -0.79000
O422        O  0.11399401  0.52219468  0.89848322    -0.66600
Ni423      Ni  0.95117424  0.46563978  0.93439452     1.34900
C424        C  0.11492313  0.51089454  0.91102060     0.84500
O425        O  0.93141702  0.41675580  0.90335615    -0.79600
O426        O  0.91357123  0.40680912  0.92611754    -0.89800
C427        C  0.00629794  0.47228825  0.87470593     0.84100
O428        O  0.91878646  0.48996091  0.92470041    -0.68000
O429        O  0.12274436  0.60755638  0.89770328    -0.87300
C430        C  0.92158085  0.50629806  0.91264084     0.84900
C431        C  0.90616378  0.39330317  0.91351825     1.06500
H432        H  0.02777995  0.55856826  0.89994937     0.38300
O433        O  0.03762895  0.53663208  0.90191759    -1.10000
O434        O  0.09181868  0.51606807  0.92060454    -0.66600
Ni435      Ni  0.05062429  0.54087603  0.92138248     1.26300
O436        O  0.94731218  0.50493399  0.90323078    -0.66900
O437        O  0.10130932  0.60283143  0.92012014    -0.79200
C438        C  0.02364312  0.53382481  0.94894293     0.84300
O439        O  0.05798986  0.54228886  0.94141036    -0.66300
Ni440      Ni  0.08404458  0.54916734  0.88876329     1.27400
Ni441      Ni  0.98513997  0.47669093  0.90218284     1.26100
H442        H  0.00943865  0.45830435  0.92322531     0.38800
O443        O  0.81312704  0.19297056  0.72150686    -0.81100
O444        O  0.86713139  0.25727069  0.78281290    -0.65800
O445        O  0.87238334  0.24058227  0.74373468    -1.12400
C446        C  0.85125785  0.09577062  0.75789432     1.05800
O447        O  0.91545800  0.23334102  0.78748912    -0.79000
O448        O  0.94313040  0.19413398  0.76824282    -0.66600
Ni449      Ni  0.83251886  0.24938113  0.73144095     1.34900
C450        C  0.95456957  0.20174331  0.75556853     0.84500
O451        O  0.87960853  0.31041002  0.76085602    -0.79600
O452        O  0.84838379  0.30714267  0.73992959    -0.89800
C453        C  0.89815097  0.25837294  0.79053262     0.84100
O454        O  0.77768884  0.21845551  0.74220024    -0.68000
O455        O  0.86352704  0.11328008  0.77006884    -0.87300
C456        C  0.77063217  0.21405906  0.75520792     0.84900
C457        C  0.86648504  0.32754718  0.75132340     1.06500
H458        H  0.82375664  0.16818285  0.76673409     0.38300
O459        O  0.85579987  0.18786847  0.76456768    -1.10000
O460        O  0.92787044  0.20102948  0.74593410    -0.66600
Ni461      Ni  0.86215466  0.17963838  0.74520901     1.26300
O462        O  0.80289210  0.22662736  0.76400494    -0.66900
O463        O  0.84942775  0.11794329  0.74738324    -0.79200
C464        C  0.83848412  0.17769950  0.71715455     0.84300
O465        O  0.86613217  0.17397827  0.72539041    -0.66300
Ni466      Ni  0.88785014  0.17379861  0.77815546     1.27400
Ni467      Ni  0.86808232  0.24932676  0.76316737     1.26100
H468        H  0.90357880  0.26091412  0.74080931     0.38800
C469        C  0.99141469  0.44362739  0.86160066     0.01100
C470        C  0.02308816  0.45276069  0.85058662     0.03900
C471        C  0.01045710  0.42338452  0.83890922    -0.12100
C472        C  0.96663988  0.38421905  0.83807935     0.23200
C473        C  0.93472991  0.37533092  0.84869121    -0.12700
C474        C  0.94618532  0.40544504  0.86008688     0.04600
C475        C  0.95227855  0.35387266  0.82557424     0.27100
C476        C  0.92852212  0.36122599  0.81479681    -0.13400
C477        C  0.91003554  0.33005073  0.80363066     0.05100
C478        C  0.91619325  0.29099710  0.80281036    -0.09400
C479        C  0.94094890  0.28440889  0.81381007     0.06000
C480        C  0.95890850  0.31584128  0.82499540    -0.13700
Br481      Br  0.87471038  0.32096250  0.84748212    -0.05800
Br482      Br  0.08305865  0.50723982  0.85055118    -0.00200
Br483      Br  0.87632304  0.34331060  0.78996171     0.00300
Br484      Br  0.99257319  0.30702964  0.83983166    -0.04100
Br485      Br  0.89755845  0.39313535  0.87289831     0.00400
Br486      Br  0.05278443  0.43680186  0.82375845    -0.03400
Br487      Br  0.92152579  0.41497835  0.81551895    -0.04300
Br488      Br  0.94870003  0.23120921  0.81458914    -0.00300
C489        C  0.16156936  0.67477363  0.91143255     0.01100
C490        C  0.16836666  0.70612707  0.90056991     0.03900
C491        C  0.20723860  0.75038916  0.90058932    -0.12100
C492        C  0.23814713  0.76473597  0.91182578     0.23200
C493        C  0.22842922  0.73593070  0.92345812    -0.12700
C494        C  0.19071460  0.69086231  0.92322827     0.04600
C495        C  0.28420414  0.80623866  0.91047404     0.27100
C496        C  0.32031635  0.80102294  0.90525682    -0.13400
C497        C  0.36445733  0.83924805  0.90405616     0.05100
C498        C  0.37288304  0.88343243  0.90784722    -0.09400
C499        C  0.33677490  0.88872473  0.91311268     0.06000
C500        C  0.29241569  0.85007688  0.91443777    -0.13700
Br501      Br  0.26904206  0.75785028  0.93933384    -0.05800
Br502      Br  0.12385884  0.68946078  0.88577285    -0.00200
Br503      Br  0.41345764  0.83018601  0.89739508     0.00300
Br504      Br  0.24257795  0.85695218  0.92135150    -0.04100
Br505      Br  0.18217451  0.65124301  0.93874476     0.00400
Br506      Br  0.21995171  0.79056961  0.88483072    -0.03400
Br507      Br  0.30890760  0.74114276  0.89948049    -0.04300
Br508      Br  0.34760168  0.94901527  0.91778056    -0.00300
C509        C  0.64549382  0.15444975  0.90494047     0.01100
C510        C  0.67935825  0.15252066  0.91314843     0.03900
C511        C  0.72541697  0.18739636  0.91210203    -0.12100
C512        C  0.73770993  0.22418619  0.90285235     0.23200
C513        C  0.70490723  0.22344307  0.89356212    -0.12700
C514        C  0.65874150  0.18853276  0.89456303     0.04600
C515        C  0.78145372  0.26750119  0.90504582     0.27100
C516        C  0.78117781  0.30127757  0.91357774    -0.13400
C517        C  0.82185070  0.34262391  0.91600905     0.05100
C518        C  0.86383837  0.34949811  0.91059480    -0.09400
C519        C  0.86426797  0.31524572  0.90223224     0.06000
C520        C  0.82281311  0.27479748  0.89914786    -0.13700
Br521      Br  0.72285846  0.27302493  0.88045348    -0.05800
Br522      Br  0.66260519  0.10261525  0.92607112    -0.00200
Br523      Br  0.81867813  0.39057960  0.92614419     0.00300
Br524      Br  0.82228255  0.22948381  0.88682177    -0.04100
Br525      Br  0.61348244  0.19057053  0.88265955     0.00400
Br526      Br  0.77119249  0.18708040  0.92416401    -0.03400
Br527      Br  0.72464107  0.29066410  0.92205749    -0.04300
Br528      Br  0.92156093  0.32232166  0.89566366    -0.00300
C529        C  0.21051874  0.20894032  0.75407387     0.01100
C530        C  0.18432670  0.19480575  0.74162511     0.03900
C531        C  0.14815385  0.20393462  0.73954257    -0.12100
C532        C  0.13621461  0.22496822  0.75007801     0.23200
C533        C  0.16369537  0.24139658  0.76209825    -0.12700
C534        C  0.20091916  0.23382904  0.76406283     0.04600
C535        C  0.08943327  0.21934109  0.75012110     0.27100
C536        C  0.08075276  0.25417379  0.74548505    -0.13400
C537        C  0.03599542  0.24799363  0.74642692     0.05100
C538        C  0.00019398  0.20732476  0.75227214    -0.09400
C539        C  0.00923868  0.17235191  0.75664214     0.06000
C540        C  0.05330019  0.17816160  0.75542280    -0.13700
Br541      Br  0.14821826  0.27178304  0.77628472    -0.05800
Br542      Br  0.19328619  0.15770015  0.72806057    -0.00200
Br543      Br  0.02440820  0.29608602  0.74057648     0.00300
Br544      Br  0.06464306  0.12974964  0.76148394    -0.04100
Br545      Br  0.23805424  0.25734033  0.78062614     0.00400
Br546      Br  0.11215937  0.18455359  0.72268654    -0.03400
Br547      Br  0.13056248  0.31060132  0.73834656    -0.04300
Br548      Br  0.96166319  0.11594006  0.76470010    -0.00300
C549        C  0.50422412  0.17439085  0.75765305     0.01100
C550        C  0.50432814  0.13894202  0.76559300     0.03900
C551        C  0.54597311  0.13953773  0.76817911    -0.12100
C552        C  0.58709846  0.17403274  0.76225222     0.23200
C553        C  0.58705486  0.20945011  0.75444681    -0.12700
C554        C  0.54638695  0.21072317  0.75262808     0.04600
C555        C  0.63091147  0.17377415  0.76377523     0.27100
C556        C  0.66553711  0.20601003  0.77254842    -0.13400
C557        C  0.71140507  0.21690943  0.77069029     0.05100
C558        C  0.72253800  0.19487163  0.76012480    -0.09400
C559        C  0.68657202  0.15740386  0.75302366     0.06000
C560        C  0.64099709  0.14749828  0.75461279    -0.13700
Br561      Br  0.64304063  0.25635312  0.74596888    -0.05800
Br562      Br  0.44775822  0.08839882  0.77241544    -0.00200
Br563      Br  0.75830133  0.26457650  0.78195966     0.00300
Br564      Br  0.59287407  0.10033499  0.74345864    -0.04100
Br565      Br  0.55029819  0.26477110  0.74405306     0.00400
Br566      Br  0.54714589  0.09352144  0.77988205    -0.03400
Br567      Br  0.65010850  0.23788001  0.78626420    -0.04300
Br568      Br  0.69957674  0.11900513  0.74130229    -0.00300
C569        C  0.45978932  0.05149358  0.85876996     0.01100
C570        C  0.48690190  0.07460973  0.84712257     0.03900
C571        C  0.46896613  0.08986779  0.83639400    -0.12100
C572        C  0.42405135  0.08281519  0.83737011     0.23200
C573        C  0.39666144  0.05886545  0.84889497    -0.12700
C574        C  0.41420926  0.04268428  0.85944809     0.04600
C575        C  0.40513341  0.09940703  0.82611689     0.27100
C576        C  0.41374564  0.14499928  0.82615168    -0.13400
C577        C  0.39622102  0.16063525  0.81540398     0.05100
C578        C  0.37006486  0.13084083  0.80450776    -0.09400
C579        C  0.36108743  0.08511128  0.80458434     0.06000
C580        C  0.37834562  0.06944291  0.81537163    -0.13700
Br581      Br  0.33498383  0.04834815  0.85018307    -0.05800
Br582      Br  0.54780608  0.08325439  0.84560243    -0.00200
Br583      Br  0.40705784  0.22261131  0.81578191     0.00300
Br584      Br  0.36609619  0.00697298  0.81534751    -0.04100
Br585      Br  0.37577945  0.00862802  0.87493129     0.00400
Br586      Br  0.50545491  0.11966187  0.82018731    -0.03400
Br587      Br  0.44980535  0.18596562  0.84094163    -0.04300
Br588      Br  0.32749254  0.04455046  0.78942757    -0.00300
C589        C  0.69114647  0.54173762  0.91195480     0.01100
C590        C  0.72893513  0.58172989  0.90645983     0.03900
C591        C  0.77164106  0.58393260  0.90492410    -0.12100
C592        C  0.77693786  0.54675401  0.90916669     0.23200
C593        C  0.73951422  0.50707529  0.91474923    -0.12700
C594        C  0.69668891  0.50422779  0.91600137     0.04600
C595        C  0.82155197  0.54831782  0.90800638     0.27100
C596        C  0.82879916  0.52544206  0.89694290    -0.13400
C597        C  0.86323355  0.51345789  0.89796046     0.05100
C598        C  0.89236308  0.52688409  0.90972530    -0.09400
C599        C  0.88873275  0.55532887  0.91986048     0.06000
C600        C  0.85254819  0.56478050  0.91921550    -0.13700
Br601      Br  0.74716993  0.45629277  0.92072822    -0.05800
Br602      Br  0.72334897  0.63458313  0.90181446    -0.00200
Br603      Br  0.86583202  0.47386109  0.88405506     0.00300
Br604      Br  0.84279775  0.59668098  0.93428755    -0.04100
Br605      Br  0.64560537  0.44746285  0.92277030     0.00400
Br606      Br  0.82305899  0.63762877  0.89703815    -0.03400
Br607      Br  0.78858682  0.50723608  0.88098344    -0.04300
Br608      Br  0.93270540  0.58086557  0.93485185    -0.00300
C609        C  0.14659535  0.49297463  0.91422586     0.01100
C610        C  0.15212396  0.46510412  0.90430269     0.03900
C611        C  0.19217616  0.46174852  0.90427663    -0.12100
C612        C  0.22673385  0.48579073  0.91422737     0.23200
C613        C  0.21824074  0.50773493  0.92533070    -0.12700
C614        C  0.17769680  0.51040055  0.92552943     0.04600
C615        C  0.27386703  0.49375270  0.91182863     0.27100
C616        C  0.28960440  0.46683990  0.91847579    -0.13400
C617        C  0.33489287  0.47601476  0.91631034     0.05100
C618        C  0.36463952  0.51189626  0.90727496    -0.09400
C619        C  0.34772401  0.53739037  0.90010787     0.06000
C620        C  0.30300290  0.52891659  0.90264738    -0.13700
Br621      Br  0.26418886  0.53749741  0.93959867    -0.05800
Br622      Br  0.10489804  0.43162745  0.89062233    -0.00200
Br623      Br  0.35481269  0.43729434  0.92514155     0.00300
Br624      Br  0.28163394  0.56655292  0.89380220    -0.04100
Br625      Br  0.16656306  0.53945749  0.94105217     0.00400
Br626      Br  0.20164316  0.42726386  0.88997693    -0.03400
Br627      Br  0.24873390  0.41726601  0.93047932    -0.04300
Br628      Br  0.38542293  0.58548869  0.88707407    -0.00300
C629        C  0.51477084  0.39612684  0.90314968     0.01100
C630        C  0.54094729  0.38521554  0.89415367     0.03900
C631        C  0.52976980  0.33920518  0.89260116    -0.12100
C632        C  0.49387753  0.30456902  0.90048988     0.23200
C633        C  0.46515706  0.31499167  0.90839789    -0.12700
C634        C  0.47492889  0.36064880  0.90940539     0.04600
C635        C  0.49286657  0.26049748  0.90274481     0.27100
C636        C  0.46061614  0.21994546  0.89598992    -0.13400
C637        C  0.46090161  0.17866215  0.89834801     0.05100
C638        C  0.49474441  0.17838568  0.90705153    -0.09400
C639        C  0.52805314  0.21985694  0.91337426     0.06000
C640        C  0.52576691  0.26002725  0.91169302    -0.13700
Br641      Br  0.41572343  0.26771471  0.91911107    -0.05800
Br642      Br  0.59551576  0.43319186  0.88540616    -0.00200
Br643      Br  0.41395133  0.12279811  0.88998181    -0.03300
Br644      Br  0.56793739  0.31486029  0.92180040    -0.04100
Br645      Br  0.43491240  0.37508479  0.91986732     0.00400
Br646      Br  0.56679855  0.32386891  0.88097004    -0.03400
Br647      Br  0.41632919  0.22133264  0.88352268    -0.04300
Br648      Br  0.57998825  0.22396482  0.92341280    -0.00300
C649        C  0.53503892  0.88674525  0.90763679     0.01100
C650        C  0.52606877  0.86412684  0.92072966     0.03900
C651        C  0.53405018  0.82720724  0.92266347    -0.12100
C652        C  0.54328133  0.80742140  0.91116378     0.23200
C653        C  0.55123030  0.82883844  0.89808107    -0.12700
C654        C  0.55087811  0.87030559  0.89660185     0.04600
C655        C  0.53925234  0.76151427  0.91255456     0.27100
C656        C  0.57828679  0.75623162  0.91188227    -0.13400
C657        C  0.57304147  0.71190637  0.91211071     0.05100
C658        C  0.52906315  0.67315261  0.91333616    -0.09400
C659        C  0.49103538  0.67896566  0.91560695     0.06000
C660        C  0.49557133  0.72262020  0.91454244    -0.13700
Br661      Br  0.55889763  0.79944490  0.88190603    -0.05800
Br662      Br  0.49635953  0.87746306  0.93567767    -0.00200
Br663      Br  0.62565717  0.70386811  0.91105930     0.00300
Br664      Br  0.44122697  0.72838369  0.91478290    -0.04100
Br665      Br  0.57374550  0.90430409  0.87946291     0.00400
Br666      Br  0.52986242  0.80166977  0.94098669    -0.03400
Br667      Br  0.63847884  0.80946184  0.91016391    -0.04300
Br668      Br  0.43294168  0.62714029  0.92071661    -0.00300
C669        C  0.20564144  0.04668232  0.75151269     0.01100
C670        C  0.20864468  0.01294147  0.74360668     0.03900
C671        C  0.16928206  0.96907879  0.74169521    -0.12100
C672        C  0.12721488  0.95848916  0.74797218     0.23200
C673        C  0.12403793  0.99270210  0.75544049    -0.12700
C674        C  0.16241293  0.03672753  0.75682180     0.04600
C675        C  0.08607508  0.91146396  0.74745085     0.27100
C676        C  0.04824467  0.90314138  0.73906959    -0.13400
C677        C  0.00445382  0.86516887  0.74180819     0.05100
C678        C  0.99885830  0.83335421  0.75238337    -0.09400
C679        C  0.03808499  0.83876056  0.75948238     0.06000
C680        C  0.08117946  0.87829165  0.75732886    -0.13700
Br681      Br  0.06715580  0.97864269  0.76443616    -0.05800
Br682      Br  0.26676793  0.02580514  0.73605011    -0.00200
Br683      Br  0.95195844  0.86064322  0.73213473     0.00300
Br684      Br  0.13287673  0.88884999  0.76868808    -0.04100
Br685      Br  0.15439838  0.08370966  0.76571838     0.00400
Br686      Br  0.17282189  0.92306574  0.73076572    -0.03400
Br687      Br  0.05630670  0.94603928  0.72449027    -0.04300
Br688      Br  0.03298948  0.79186116  0.77214689    -0.00300
C689        C  0.47838204  0.31931840  0.76269664     0.01100
C690        C  0.50540055  0.32619801  0.77478206     0.03900
C691        C  0.54031398  0.37075849  0.77840743    -0.12100
C692        C  0.54952953  0.40825886  0.76978845     0.23200
C693        C  0.51986381  0.40210086  0.75860356    -0.12700
C694        C  0.48374546  0.35796015  0.75528416     0.04600
C695        C  0.59473608  0.45126068  0.77056419     0.27100
C696        C  0.59984379  0.49142899  0.77682964    -0.13400
C697        C  0.64084132  0.53382985  0.77498794     0.05100
C698        C  0.67667355  0.53591918  0.76682423    -0.09400
C699        C  0.67284579  0.49451414  0.76185707     0.06000
C700        C  0.63215202  0.45259790  0.76368231    -0.13700
Br701      Br  0.53091537  0.45389466  0.74719372    -0.05800
Br702      Br  0.49836324  0.27499840  0.78582388    -0.00200
Br703      Br  0.64645774  0.58876943  0.78299345     0.00300
Br704      Br  0.62699818  0.39680426  0.75623167    -0.04100
Br705      Br  0.44091897  0.35079737  0.74082318     0.00400
Br706      Br  0.57813430  0.38052204  0.79458772    -0.03400
Br707      Br  0.55017663  0.48800669  0.78764038    -0.04300
Br708      Br  0.72346076  0.49429188  0.75253810    -0.00300
C709        C  0.84014430  0.04744827  0.75581935     0.01100
C710        C  0.81526412  0.01396189  0.76607155     0.03900
C711        C  0.81146512  0.97042684  0.76535781    -0.12100
C712        C  0.83058051  0.95921040  0.75410286     0.23200
C713        C  0.85177003  0.99084282  0.74321951    -0.12700
C714        C  0.85722848  0.03510735  0.74410638     0.04600
C715        C  0.83521110  0.91765207  0.75488997     0.27100
C716        C  0.87493240  0.92152179  0.76100516    -0.13400
C717        C  0.87986664  0.88272872  0.76238549     0.05100
C718        C  0.84424678  0.83896980  0.75803768    -0.09400
C719        C  0.80510784  0.83547116  0.75137749     0.06000
C720        C  0.80060442  0.87485937  0.74987345    -0.13700
Br721      Br  0.87612835  0.97407280  0.72757304    -0.05800
Br722      Br  0.78541517  0.02692746  0.78105593    -0.00200
Br723      Br  0.93730014  0.89128933  0.76967749     0.00300
Br724      Br  0.74680210  0.87053060  0.74126601    -0.04100
Br725      Br  0.89214966  0.07925229  0.72978122     0.00400
Br726      Br  0.78280578  0.92692723  0.78029146    -0.03400
Br727      Br  0.92253060  0.98041389  0.76779972    -0.04300
Br728      Br  0.75699251  0.77701989  0.74472745    -0.00300
C729        C  0.85200861  0.57053196  0.76085579     0.01100
C730        C  0.84044270  0.54133379  0.77259016     0.03900
C731        C  0.85265501  0.50693364  0.77296337    -0.12100
C732        C  0.87441152  0.50039804  0.76143257     0.23200
C733        C  0.88997476  0.53227720  0.75044486    -0.12700
C734        C  0.88002560  0.56812868  0.75037452     0.04600
C735        C  0.87298512  0.45600643  0.75957596     0.27100
C736        C  0.91234482  0.45206768  0.76158272    -0.13400
C737        C  0.91092555  0.41043380  0.75851790     0.05100
C738        C  0.86962094  0.37225320  0.75390186    -0.09400
C739        C  0.82993596  0.37606052  0.75231842     0.06000
C740        C  0.83188294  0.41795391  0.75491559    -0.13700
Br741      Br  0.92101461  0.52417386  0.73481088    -0.05800
Br742      Br  0.80359532  0.54425642  0.78746934    -0.00200
Br743      Br  0.96605009  0.40652431  0.76000351     0.00300
Br744      Br  0.77804494  0.42335186  0.75180101    -0.04100
Br745      Br  0.90443445  0.61358989  0.73575047     0.00400
Br746      Br  0.83609969  0.46577637  0.78864455    -0.03400
Br747      Br  0.96797035  0.50379881  0.76846135    -0.04300
Br748      Br  0.77183956  0.32357750  0.74716448    -0.00300
C749        C  0.60961337  0.59388956  0.86237333     0.01100
C750        C  0.64174345  0.64138055  0.86164205     0.03900
C751        C  0.67496698  0.65875165  0.85103363    -0.12100
C752        C  0.67566029  0.62910403  0.84085768     0.23200
C753        C  0.64262698  0.58203471  0.84122536    -0.12700
C754        C  0.61007071  0.56435827  0.85202551     0.04600
C755        C  0.71152347  0.64723227  0.82987260     0.27100
C756        C  0.70587774  0.66793768  0.81784167    -0.13400
C757        C  0.73944096  0.68422928  0.80734114     0.05100
C758        C  0.77806339  0.67847791  0.80861083    -0.09400
C759        C  0.78366066  0.65770933  0.82061940     0.06000
C760        C  0.75097796  0.64303827  0.83136471    -0.13700
Br761      Br  0.64215083  0.54194382  0.82681995    -0.05800
Br762      Br  0.64221505  0.68284106  0.87549685    -0.00200
Br763      Br  0.73137772  0.71246464  0.79086896     0.00300
Br764      Br  0.76004735  0.61714559  0.84817795    -0.04100
Br765      Br  0.56518437  0.49977192  0.85232595     0.00400
Br766      Br  0.72061339  0.72311681  0.85059276    -0.03400
Br767      Br  0.65136659  0.67259296  0.81560711    -0.04300
Br768      Br  0.83619583  0.64950100  0.82231007    -0.00300
C769        C  0.51706744  0.03207956  0.03416262     0.01100
C770        C  0.55537772  0.06557813  0.02676427     0.03900
C771        C  0.55594261  0.06409387  0.01207742    -0.12100
C772        C  0.51862610  0.02871243  0.00476371     0.23200
C773        C  0.47969958  0.99647484  0.01211323    -0.12700
C774        C  0.47850292  0.99868209  0.02668537     0.04600
C775        C  0.51959025  0.02523075  0.98933363     0.27100
C776        C  0.49992690  0.04520620  0.98092917    -0.13400
C777        C  0.49826169  0.03970699  0.96639813     0.05100
C778        C  0.51780439  0.01564355  0.96005882    -0.09400
C779        C  0.53789261  0.99600137  0.96846729     0.06000
C780        C  0.53788642  0.99994139  0.98308639    -0.13700
Br781      Br  0.42841764  0.94823966  0.00214410    -0.05800
Br782      Br  0.60805931  0.11166538  0.03667525    -0.00200
Br783      Br  0.46901722  0.06534740  0.95510972     0.00300
Br784      Br  0.56339238  0.97125656  0.99464116    -0.04100
Br785      Br  0.42298980  0.95618338  0.03632985     0.00400
Br786      Br  0.60819095  0.10967930  0.00190451    -0.03400
Br787      Br  0.47619028  0.08102836  0.98938909    -0.04300
Br788      Br  0.56803498  0.96645749  0.95997928    -0.00300
C789        C  0.42616419  0.97887328  0.13667574     0.01100
C790        C  0.38631358  0.93429411  0.13740827     0.03900
C791        C  0.35579098  0.92194681  0.14871756    -0.12100
C792        C  0.36477089  0.95275414  0.15968358     0.23200
C793        C  0.40456689  0.99619656  0.15938635    -0.12700
C794        C  0.43547489  0.00908764  0.14813830     0.04600
C795        C  0.33504085  0.93729360  0.17228259     0.27100
C796        C  0.29548572  0.94128786  0.17307522    -0.13400
C797        C  0.26716955  0.92572993  0.18498391     0.05100
C798        C  0.27862160  0.90639300  0.19645873    -0.09400
C799        C  0.31832692  0.90164011  0.19527332     0.06000
C800        C  0.34597104  0.91696055  0.18328742    -0.13700
Br801      Br  0.41678711  0.03770011  0.17473737    -0.05800
Br802      Br  0.37208691  0.88747576  0.12364596    -0.00200
Br803      Br  0.21132963  0.92880408  0.18471277     0.00300
Br804      Br  0.39945660  0.90987295  0.18170081    -0.04100
Br805      Br  0.49241805  0.06675136  0.14957527     0.00400
Br806      Br  0.30121375  0.86195888  0.14947356    -0.03400
Br807      Br  0.28004207  0.96758112  0.15755110    -0.04300
Br808      Br  0.33753592  0.87502686  0.20972041    -0.00300
C809        C  0.50063460  0.51220348  0.96191160     0.01100
C810        C  0.53778280  0.51157079  0.96870853     0.03900
C811        C  0.53766112  0.50608450  0.98318279    -0.12100
C812        C  0.50202937  0.50408726  0.99126455     0.23200
C813        C  0.46553284  0.50620739  0.98466504    -0.12700
C814        C  0.46458573  0.50979729  0.97000410     0.04600
C815        C  0.50556845  0.50304805  0.00671455     0.27100
C816        C  0.48082889  0.46158917  0.01420208    -0.13400
C817        C  0.48677867  0.46087553  0.02872295     0.05100
C818        C  0.51889990  0.50099477  0.03569810    -0.09400
C819        C  0.54503799  0.54180833  0.02811910     0.06000
C820        C  0.53751470  0.54320611  0.01377990    -0.13700
Br821      Br  0.41680571  0.50382241  0.99573854    -0.05800
Br822      Br  0.59127422  0.52139413  0.95855904    -0.00200
Br823      Br  0.45008811  0.40557134  0.03924774     0.00300
Br824      Br  0.57002675  0.60061529  0.00383648    -0.04100
Br825      Br  0.41324904  0.50971712  0.96103158     0.00400
Br826      Br  0.58656203  0.50089844  0.99207090    -0.03400
Br827      Br  0.43860348  0.40603191  0.00459648    -0.04300
Br828      Br  0.59047163  0.59630588  0.03758688    -0.00300
C829        C  0.51423390  0.88950635  0.08791690     0.01100
C830        C  0.49518799  0.85401852  0.09792345     0.03900
C831        C  0.51067109  0.82224470  0.09882591    -0.12100
C832        C  0.54393277  0.82484297  0.08944448     0.23200
C833        C  0.56605645  0.86267989  0.08041494    -0.12700
C834        C  0.55200294  0.89563260  0.07991933     0.04600
C835        C  0.54781512  0.78338756  0.08713641     0.27100
C836        C  0.58483100  0.77952710  0.09246146    -0.13400
C837        C  0.58617861  0.73866652  0.09044147     0.05100
C838        C  0.54888735  0.70064903  0.08398688    -0.09400
C839        C  0.51151462  0.70464310  0.07890794     0.06000
C840        C  0.51207811  0.74639577  0.07993355    -0.13700
Br841      Br  0.61263144  0.86710591  0.06785663    -0.05800
Br842      Br  0.44471829  0.84532578  0.10943779    -0.00200
Br843      Br  0.63983119  0.73565689  0.09585301     0.00300
Br844      Br  0.46316216  0.75279445  0.07155156    -0.04100
Br845      Br  0.58461728  0.94926531  0.06829758     0.00400
Br846      Br  0.48292549  0.77186126  0.11187224    -0.03400
Br847      Br  0.63283568  0.82971560  0.10273629    -0.04300
Br848      Br  0.45720410  0.65234103  0.07138924    -0.00300
C849        C  0.51017781  0.37048333  0.08971982     0.01100
C850        C  0.53443557  0.36196666  0.07921761     0.03900
C851        C  0.52930451  0.31798516  0.07777085    -0.12100
C852        C  0.50148814  0.28268550  0.08709372     0.23200
C853        C  0.47663350  0.29071383  0.09737731    -0.12700
C854        C  0.48034543  0.33421278  0.09855380     0.04600
C855        C  0.50390852  0.23973177  0.08742912     0.27100
C856        C  0.47055756  0.19936917  0.08078040    -0.13400
C857        C  0.47274991  0.15853849  0.08173489     0.05100
C858        C  0.50875296  0.15822311  0.08923403    -0.09400
C859        C  0.54316300  0.19960404  0.09540450     0.06000
C860        C  0.54023890  0.23972984  0.09466177    -0.13700
Br861      Br  0.43946051  0.24253971  0.11034044    -0.05800
Br862      Br  0.57865466  0.41121146  0.06763785    -0.00200
Br863      Br  0.42519844  0.10289054  0.07339656     0.00300
Br864      Br  0.58601442  0.29515868  0.10377851    -0.04100
Br865      Br  0.44404282  0.34366007  0.11220607     0.00400
Br866      Br  0.56250211  0.30638903  0.06351596    -0.03400
Br867      Br  0.42176883  0.20032426  0.07053141    -0.04300
Br868      Br  0.59621756  0.20319522  0.10454374    -0.00300
C869        C  0.04271682  0.83731127  0.24501713     0.01100
C870        C  0.02782531  0.86704175  0.23987795     0.03900
C871        C  0.98272380  0.85743107  0.24231734    -0.12100
C872        C  0.95190495  0.81811170  0.24989984     0.23200
C873        C  0.96683658  0.78880635  0.25529771    -0.12700
C874        C  0.01212307  0.79832096  0.25288426     0.04600
C875        C  0.90370824  0.80777075  0.25178279     0.27100
C876        C  0.89277470  0.82913886  0.26249589    -0.13400
C877        C  0.85065541  0.82879178  0.26223844     0.05100
C878        C  0.81877315  0.80596517  0.25137329    -0.09400
C879        C  0.82751793  0.77948926  0.24178718     0.06000
C880        C  0.87014710  0.78111138  0.24182749    -0.13700
Br881      Br  0.92502326  0.73582328  0.26601791    -0.05800
Br882      Br  0.06980989  0.92265976  0.23011307    -0.00200
Br883      Br  0.83964586  0.86397918  0.27594080     0.00300
Br884      Br  0.88406750  0.74965113  0.22760275    -0.04100
Br885      Br  0.03137381  0.75679844  0.25992927     0.00400
Br886      Br  0.96324778  0.89871406  0.23535434    -0.03400
Br887      Br  0.93723836  0.86158189  0.27693528    -0.04300
Br888      Br  0.78140884  0.74199338  0.22827646    -0.00300
C889        C  0.56415150  0.84228397  0.24614549     0.01100
C890        C  0.53610124  0.83065624  0.23415174     0.03900
C891        C  0.50190169  0.84297314  0.23316543    -0.12100
C892        C  0.49540666  0.86667875  0.24413659     0.23200
C893        C  0.52612765  0.88231673  0.25542792    -0.12700
C894        C  0.56106790  0.87104692  0.25628410     0.04600
C895        C  0.45191368  0.86753782  0.24500664     0.27100
C896        C  0.44908937  0.90620393  0.24076949    -0.13400
C897        C  0.40753134  0.90647827  0.24226068     0.05100
C898        C  0.36834230  0.86721236  0.24742715    -0.09400
C899        C  0.37103821  0.82785061  0.25105482     0.06000
C900        C  0.41288966  0.82853202  0.25021324    -0.13700
Br901      Br  0.51742457  0.91541029  0.27035634    -0.05800
Br902      Br  0.54082741  0.79444091  0.21953671    -0.00200
Br903      Br  0.40513317  0.96126952  0.23797377     0.00300
Br904      Br  0.41697059  0.77586167  0.25636573    -0.04100
Br905      Br  0.60455930  0.89513087  0.27143596     0.00400
Br906      Br  0.46050916  0.82344319  0.21745649    -0.03400
Br907      Br  0.50218325  0.95840916  0.23295458    -0.04300
Br908      Br  0.31699614  0.77159623  0.25661297    -0.00300
C909        C  0.57572970  0.60874747  0.13751166     0.01100
C910        C  0.58083352  0.65339157  0.13773190     0.03900
C911        C  0.60157181  0.68282163  0.14920419    -0.12100
C912        C  0.61429270  0.66731043  0.16107743     0.23200
C913        C  0.60713304  0.62236065  0.16132265    -0.12700
C914        C  0.58803275  0.59321380  0.14968859     0.04600
C915        C  0.62996401  0.69640344  0.17388519     0.27100
C916        C  0.67648789  0.72873902  0.17604712    -0.13400
C917        C  0.69062191  0.75710838  0.18799953     0.05100
C918        C  0.65819293  0.75231038  0.19835428    -0.09400
C919        C  0.61106237  0.71940569  0.19586713     0.06000
C920        C  0.59743027  0.69223209  0.18372602    -0.13700
Br921      Br  0.62321615  0.60077378  0.17784994    -0.05800
Br922      Br  0.55786194  0.67523479  0.12298742    -0.00200
Br923      Br  0.75453386  0.80401399  0.18923513     0.00300
Br924      Br  0.53334381  0.64835706  0.18037376    -0.04100
Br925      Br  0.57495800  0.53048843  0.15130735     0.00400
Br926      Br  0.61297957  0.74513232  0.14876754    -0.03400
Br927      Br  0.72074899  0.73385433  0.16240583    -0.04300
Br928      Br  0.56296928  0.70870725  0.20871586    -0.00300
C929        C  0.18252699  0.19626940  0.24437666     0.01100
C930        C  0.22061854  0.20202217  0.25224700     0.03900
C931        C  0.22795524  0.16461406  0.25426831    -0.12100
C932        C  0.19766797  0.12164435  0.24832446     0.23200
C933        C  0.15897460  0.11554894  0.24084684    -0.12700
C934        C  0.15109060  0.15247113  0.23902720     0.04600
C935        C  0.20620710  0.08253278  0.24957083     0.27100
C936        C  0.23504637  0.07788369  0.23993759    -0.13400
C937        C  0.23582245  0.03651661  0.23917285     0.05100
C938        C  0.20672348  0.99915963  0.24775251    -0.09400
C939        C  0.18022953  0.00500408  0.25806295     0.06000
C940        C  0.18062298  0.04693930  0.25908719    -0.13700
Br941      Br  0.11663358  0.05627696  0.23300914    -0.05800
Br942      Br  0.26389665  0.26128259  0.25981566    -0.00200
Br943      Br  0.27579936  0.03047376  0.22606965     0.00300
Br944      Br  0.14316893  0.05465741  0.27275503    -0.04100
Br945      Br  0.09548572  0.14181981  0.22983019     0.00400
Br946      Br  0.27936089  0.17183172  0.26515081    -0.03400
Br947      Br  0.27064754  0.12691503  0.22703846    -0.04300
Br948      Br  0.13889018  0.95423686  0.26969344    -0.00300
C949        C  0.19034729  0.72074371  0.24245526     0.01100
C950        C  0.20594804  0.70754162  0.23062316     0.03900
C951        C  0.19388301  0.66131455  0.22887104    -0.12100
C952        C  0.16743071  0.62861565  0.23902234     0.23200
C953        C  0.14768693  0.64066358  0.24990155    -0.12700
C954        C  0.15813076  0.68640674  0.25140654     0.04600
C955        C  0.16723313  0.58451702  0.23964902     0.27100
C956        C  0.12937263  0.54338016  0.23493011    -0.13400
C957        C  0.12884695  0.50143774  0.23662154     0.05100
C958        C  0.16685360  0.50089881  0.24268456    -0.09400
C959        C  0.20573974  0.54274895  0.24667783     0.06000
C960        C  0.20548482  0.58413057  0.24543309    -0.13700
Br961      Br  0.10917721  0.59512263  0.26337129    -0.05800
Br962      Br  0.24693417  0.75213989  0.21732858    -0.00200
Br963      Br  0.07504114  0.44495251  0.23141940     0.00300
Br964      Br  0.25754053  0.64054359  0.25195135    -0.04100
Br965      Br  0.12774108  0.70158081  0.26572224     0.00400
Br966      Br  0.21649732  0.64282689  0.21319161    -0.03400
Br967      Br  0.07836992  0.54489025  0.22629865    -0.04300
Br968      Br  0.26072041  0.54440545  0.25341751    -0.00300
C969        C  0.83633105  0.97611464  0.24965775     0.01100
C970        C  0.83203944  0.00907964  0.25761832     0.03900
C971        C  0.86951434  0.05417684  0.25889281    -0.12100
C972        C  0.91114859  0.06679101  0.25208353     0.23200
C973        C  0.91596471  0.03364062  0.24453983    -0.12700
C974        C  0.87895011  0.98855303  0.24338357     0.04600
C975        C  0.94914560  0.11538405  0.25191613     0.27100
C976        C  0.95036103  0.14519756  0.24141422    -0.13400
C977        C  0.98978931  0.18847416  0.23957688     0.05100
C978        C  0.02890609  0.20200162  0.24800622    -0.09400
C979        C  0.02638571  0.17315681  0.25916572     0.06000
C980        C  0.98639941  0.13023047  0.26115800    -0.13700
Br981      Br  0.97328254  0.05051847  0.23543285    -0.05800
Br982      Br  0.77403198  0.99404403  0.26585867    -0.00200
Br983      Br  0.99022015  0.22883747  0.22529022     0.00300
Br984      Br  0.98338943  0.09002435  0.27597687    -0.04100
Br985      Br  0.88748336  0.94388314  0.23326943     0.00400
Br986      Br  0.86383264  0.09935030  0.26964479    -0.03400
Br987      Br  0.89889882  0.12519175  0.22891475    -0.04300
Br988      Br  0.07892276  0.18917798  0.27089435    -0.00300
C989        C  0.52734480  0.65969526  0.24641740     0.01100
C990        C  0.48518188  0.65196189  0.25195740     0.03900
C991        C  0.44475384  0.61051250  0.24934463    -0.12100
C992        C  0.44540076  0.57739879  0.24058674     0.23200
C993        C  0.48695613  0.58529078  0.23470753    -0.12700
C994        C  0.52812186  0.62600516  0.23783015     0.04600
C995        C  0.40182360  0.53413885  0.23808645     0.27100
C996        C  0.38889946  0.49689090  0.24718850    -0.13400
C997        C  0.34286355  0.46181507  0.24782194     0.05100
C998        C  0.30943302  0.46458046  0.23964260    -0.09400
C999        C  0.32338316  0.49900257  0.22933729     0.06000
C1000       C  0.36975042  0.53364647  0.22853838    -0.13700
Br1001     Br  0.48714475  0.54001320  0.22251505    -0.05800
Br1002     Br  0.48136560  0.69880163  0.26255428    -0.00200
Br1003     Br  0.32530857  0.41053028  0.26021373     0.00300
Br1004     Br  0.38898324  0.58317425  0.21534487    -0.04100
Br1005     Br  0.58549697  0.63401101  0.23097733     0.00400
Br1006     Br  0.38812755  0.59864815  0.25800185    -0.03400
Br1007     Br  0.43346896  0.49642423  0.25975180    -0.04300
Br1008     Br  0.27892895  0.50211709  0.21732968    -0.00300
C1009       C  0.02413991  0.53098895  0.96429581     0.01100
C1010       C  0.05034666  0.57020422  0.97255321     0.03900
C1011       C  0.04566737  0.56725899  0.98716639    -0.12100
C1012       C  0.01315479  0.52568095  0.99347173     0.23200
C1013       C  0.98639686  0.48686617  0.98519624    -0.12700
C1014       C  0.99278531  0.48910976  0.97074987     0.04600
C1015       C  0.00877849  0.52106875  0.00883390     0.27100
C1016       C  0.03016838  0.50019451  0.01597808    -0.13400
C1017       C  0.02412281  0.49286478  0.03037165     0.05100
C1018       C  0.99736714  0.50711791  0.03779694    -0.09400
C1019       C  0.97487507  0.52682116  0.03064961     0.06000
C1020       C  0.98062394  0.53388056  0.01615599    -0.13700
Br1021     Br  0.94046478  0.43050144  0.99375390    -0.05800
Br1022     Br  0.09025223  0.62832148  0.96384341    -0.00200
Br1023     Br  0.05285509  0.46333889  0.04002599     0.00300
Br1024     Br  0.95100235  0.56204755  0.00635620    -0.04100
Br1025     Br  0.95919038  0.43382337  0.95991614     0.00400
Br1026     Br  0.08349367  0.61994554  0.99858683    -0.03400
Br1027     Br  0.06873673  0.48261238  0.00602608    -0.04300
Br1028     Br  0.93780405  0.54555397  0.04085001    -0.00300
C1029       C  0.17363132  0.49547984  0.08839724     0.01100
C1030       C  0.17782439  0.46144370  0.09578860     0.03900
C1031       C  0.22132062  0.46538743  0.09741896    -0.12100
C1032       C  0.26016664  0.50232531  0.09122647     0.23200
C1033       C  0.25593199  0.53610206  0.08381610    -0.12700
C1034       C  0.21325495  0.53355510  0.08278410     0.04600
C1035       C  0.30586903  0.50619611  0.09205188     0.27100
C1036       C  0.33974864  0.53956522  0.10077854    -0.13400
C1037       C  0.38603298  0.55226471  0.09896327     0.05100
C1038       C  0.39815181  0.52971337  0.08889355    -0.09400
C1039       C  0.36351284  0.49322108  0.08112107     0.06000
C1040       C  0.31764862  0.48243136  0.08240555    -0.13700
Br1041     Br  0.30887492  0.58582657  0.07480867    -0.05800
Br1042     Br  0.12412887  0.40846273  0.10304764    -0.00200
Br1043     Br  0.43267194  0.60405603  0.10916355     0.00300
Br1044     Br  0.27153962  0.43799305  0.07008699    -0.04100
Br1045     Br  0.21062009  0.58438991  0.07429024     0.00400
Br1046     Br  0.22803436  0.42043707  0.10805127    -0.03400
Br1047     Br  0.32277459  0.57048938  0.11438845    -0.04300
Br1048     Br  0.37870804  0.45792851  0.06863747    -0.00300
C1049       C  0.87350133  0.51689489  0.09053304     0.01100
C1050       C  0.83993222  0.49111493  0.08037850     0.03900
C1051       C  0.80267571  0.49833147  0.07824484    -0.12100
C1052       C  0.79798246  0.53022119  0.08650581     0.23200
C1053       C  0.83218813  0.55706791  0.09628756    -0.12700
C1054       C  0.87015469  0.55077274  0.09820305     0.04600
C1055       C  0.75302962  0.52818201  0.08703989     0.27100
C1056       C  0.74427404  0.55889489  0.07942656    -0.13400
C1057       C  0.70129285  0.55653973  0.08053217     0.05100
C1058       C  0.66703621  0.52311393  0.08919428    -0.09400
C1059       C  0.67563855  0.49108550  0.09627918     0.06000
C1060       C  0.71859227  0.49423708  0.09538106    -0.13700
Br1061     Br  0.82514328  0.60016066  0.10772231    -0.05800
Br1062     Br  0.84192948  0.44242003  0.07034453    -0.00200
Br1063     Br  0.69030037  0.60007382  0.07064437     0.00300
Br1064     Br  0.73062458  0.45184741  0.10573478    -0.04100
Br1065     Br  0.91746242  0.58857705  0.11133952     0.00400
Br1066     Br  0.75565040  0.46181884  0.06483205    -0.03400
Br1067     Br  0.79141230  0.60411916  0.06763813    -0.04300
Br1068     Br  0.62833134  0.44059590  0.10681978    -0.00300
C1069       C  0.33439767  0.85760971  0.08636286     0.01100
C1070       C  0.32972586  0.81552966  0.08175739     0.03900
C1071       C  0.28836166  0.77446549  0.08371601    -0.12100
C1072       C  0.25207362  0.77451353  0.09090796     0.23200
C1073       C  0.25690248  0.81597599  0.09594380    -0.12700
C1074       C  0.29766140  0.85770485  0.09340953     0.04600
C1075       C  0.20903936  0.73031891  0.09280541     0.27100
C1076       C  0.17354520  0.71646564  0.08296144    -0.13400
C1077       C  0.13847836  0.67036221  0.08240453     0.05100
C1078       C  0.14038101  0.63752272  0.09113639    -0.09400
C1079       C  0.17385574  0.65218915  0.10176806     0.06000
C1080       C  0.20742145  0.69885555  0.10278960    -0.13700
Br1081     Br  0.20770792  0.81515620  0.10636452    -0.05800
Br1082     Br  0.38052434  0.81270786  0.07341757    -0.00200
Br1083     Br  0.08807069  0.65223012  0.06956914     0.00300
Br1084     Br  0.25400799  0.71947718  0.11704614    -0.04100
Br1085     Br  0.30196535  0.91478027  0.09899902     0.00400
Br1086     Br  0.28123563  0.71767824  0.07643837    -0.03400
Br1087     Br  0.17538783  0.75979143  0.06942369    -0.04300
Br1088     Br  0.17770908  0.60838645  0.11390712    -0.00300
C1089       C  0.87286657  0.35954059  0.09110463     0.01100
C1090       C  0.87126903  0.32900790  0.08071382     0.03900
C1091       C  0.83123139  0.28582743  0.07894850    -0.12100
C1092       C  0.79281950  0.27295463  0.08750397     0.23200
C1093       C  0.79382331  0.30344898  0.09761512    -0.12700
C1094       C  0.83307308  0.34668027  0.09929511     0.04600
C1095       C  0.75007952  0.22810582  0.08583350     0.27100
C1096       C  0.71451033  0.22522710  0.07738725    -0.13400
C1097       C  0.67028908  0.18655574  0.07819690     0.05100
C1098       C  0.66138947  0.15054006  0.08758891    -0.09400
C1099       C  0.69787738  0.15232796  0.09539164     0.06000
C1100       C  0.74208444  0.19103955  0.09450108    -0.13700
Br1101     Br  0.74030338  0.28586787  0.10905867    -0.05800
Br1102     Br  0.92356999  0.34525695  0.06899044    -0.00200
Br1103     Br  0.62143260  0.18593848  0.06740248     0.00300
Br1104     Br  0.79132414  0.19497767  0.10582910    -0.04100
Br1105     Br  0.82918283  0.38877346  0.11221241     0.00400
Br1106     Br  0.82841664  0.24398557  0.06481403    -0.03400
Br1107     Br  0.72579870  0.27639795  0.06560464    -0.04300
Br1108     Br  0.68751786  0.10193378  0.10737733    -0.00300
C1109       C  0.12116875  0.36585548  0.19461917     0.01100
C1110       C  0.07817149  0.36352379  0.19439642     0.03900
C1111       C  0.06474445  0.37962011  0.18278351    -0.12100
C1112       C  0.09442463  0.39871019  0.17134535     0.23200
C1113       C  0.13720209  0.40053062  0.17143963    -0.12700
C1114       C  0.15061951  0.38430214  0.18307230     0.04600
C1115       C  0.08097144  0.41812496  0.15947896     0.27100
C1116       C  0.05401796  0.38951610  0.14852892    -0.13400
C1117       C  0.03914654  0.40740573  0.13772614     0.05100
C1118       C  0.05070334  0.45396794  0.13788096    -0.09400
C1119       C  0.07858023  0.48283422  0.14866819     0.06000
C1120       C  0.09358016  0.46492492  0.15945046    -0.13700
Br1121     Br  0.17732485  0.42558567  0.15562822    -0.05800
Br1122     Br  0.03879014  0.34113396  0.21039204    -0.00200
Br1123     Br  0.00459877  0.36847991  0.12235655     0.00300
Br1124     Br  0.13077166  0.50416635  0.17439112    -0.04100
Br1125     Br  0.20919722  0.38700465  0.18318319     0.00400
Br1126     Br  0.00589219  0.37641700  0.18260039    -0.03400
Br1127     Br  0.03726248  0.32566522  0.14844798    -0.04300
Br1128     Br  0.09479460  0.54650389  0.14894946    -0.00300
C1129       C  0.83908619  0.69993864  0.70599028     0.01100
C1130       C  0.87927327  0.72622222  0.69820045     0.03900
C1131       C  0.87783656  0.72249567  0.68358233    -0.12100
C1132       C  0.83663161  0.69123640  0.67681058     0.23200
C1133       C  0.79614904  0.66646989  0.68458649    -0.12700
C1134       C  0.79722607  0.67144595  0.69909728     0.04600
C1135       C  0.83578826  0.68335128  0.66158093     0.27100
C1136       C  0.82038375  0.70548094  0.65241872    -0.13400
C1137       C  0.81904413  0.69756082  0.63802734     0.05100
C1138       C  0.83432774  0.66843476  0.63263738    -0.09400
C1139       C  0.84834519  0.64517765  0.64184127     0.06000
C1140       C  0.84879032  0.65238983  0.65630061    -0.13700
Br1141     Br  0.73953140  0.62426849  0.67537332    -0.05800
Br1142     Br  0.93673557  0.76427723  0.70758747    -0.00200
Br1143     Br  0.79560204  0.72640554  0.62569239     0.00300
Br1144     Br  0.86806230  0.62065046  0.66893733    -0.04100
Br1145     Br  0.74111573  0.63890595  0.70962033     0.00400
Br1146     Br  0.93237965  0.75926796  0.67281136    -0.03400
Br1147     Br  0.80230037  0.74761743  0.65963603    -0.04300
Br1148     Br  0.86899621  0.60532029  0.63457024    -0.00300
C1149       C  0.66528183  0.83451288  0.37571036     0.01100
C1150       C  0.69258363  0.81907683  0.36913156     0.03900
C1151       C  0.69734160  0.82121001  0.35456918    -0.12100
C1152       C  0.67431656  0.83812191  0.34635026     0.23200
C1153       C  0.64572439  0.85213304  0.35283437    -0.12700
C1154       C  0.64152066  0.85070112  0.36749052     0.04600
C1155       C  0.67900508  0.83904768  0.33088251     0.27100
C1156       C  0.71400157  0.87797616  0.32403230    -0.13400
C1157       C  0.72004089  0.87731411  0.30949728     0.05100
C1158       C  0.69070233  0.83790212  0.30169727    -0.09400
C1159       C  0.65617475  0.79875004  0.30865943     0.06000
C1160       C  0.65021340  0.79948043  0.32312091    -0.13700
Br1161     Br  0.61300240  0.87389089  0.34158065    -0.05800
Br1162     Br  0.72348200  0.79449574  0.38012848    -0.00200
Br1163     Br  0.76718475  0.93087906  0.30020493     0.00300
Br1164     Br  0.60192432  0.74637687  0.33238619    -0.04100
Br1165     Br  0.60542761  0.87324890  0.37634368     0.00400
Br1166     Br  0.73606857  0.80150062  0.34578794    -0.03400
Br1167     Br  0.75267285  0.93259631  0.33458132    -0.04300
Br1168     Br  0.61737408  0.74309573  0.29846177    -0.00300
C1169       C  0.69419194  0.78085242  0.47787127     0.01100
C1170       C  0.71097677  0.80668399  0.49018077     0.03900
C1171       C  0.72900072  0.79162448  0.50094322    -0.12100
C1172       C  0.72977800  0.75024439  0.49954613     0.23200
C1173       C  0.71195943  0.72386882  0.48736049    -0.12700
C1174       C  0.69457023  0.73926893  0.47652782     0.04600
C1175       C  0.74985093  0.73468251  0.51076173     0.27100
C1176       C  0.79694804  0.74863197  0.51064676    -0.13400
C1177       C  0.81583061  0.73343248  0.52111076     0.05100
C1178       C  0.78769029  0.70377777  0.53172907    -0.09400
C1179       C  0.74058112  0.69016912  0.53189927     0.06000
C1180       C  0.72179698  0.70549146  0.52144762    -0.13700
Br1181     Br  0.71233149  0.66699003  0.48545294    -0.05800
Br1182     Br  0.70863128  0.86244198  0.49229171    -0.00200
Br1183     Br  0.88014585  0.75234764  0.52068991     0.00300
Br1184     Br  0.65756173  0.68696606  0.52177736    -0.04100
Br1185     Br  0.67318384  0.70444788  0.45953039     0.00400
Br1186     Br  0.75353089  0.82802074  0.51752357    -0.03400
Br1187     Br  0.83548546  0.78862339  0.49606021    -0.04300
Br1188     Br  0.70209936  0.65270917  0.54693151    -0.00300
C1189       C  0.34190386  0.20932772  0.70276069     0.01100
C1190       C  0.31927613  0.16876418  0.69471613     0.03900
C1191       C  0.32038302  0.17121040  0.68004211    -0.12100
C1192       C  0.34649825  0.21375754  0.67324009     0.23200
C1193       C  0.36853195  0.25424948  0.68119899    -0.12700
C1194       C  0.36491830  0.25218979  0.69581579     0.04600
C1195       C  0.35084048  0.21585971  0.65774393     0.27100
C1196       C  0.37999188  0.20296439  0.65107102    -0.13400
C1197       C  0.38081700  0.20084124  0.63640361     0.05100
C1198       C  0.35439908  0.21423422  0.62825361    -0.09400
C1199       C  0.32941145  0.23208739  0.63504794     0.06000
C1200       C  0.32581102  0.23074059  0.64964563    -0.13700
Br1201     Br  0.40514110  0.31260199  0.67203788    -0.05800
Br1202     Br  0.29011772  0.10931964  0.70357650    -0.00200
Br1203     Br  0.41573276  0.17646307  0.62772457     0.00300
Br1204     Br  0.28461737  0.24707696  0.65854373    -0.04100
Br1205     Br  0.39031074  0.30869160  0.70618229     0.00400
Br1206     Br  0.28640488  0.11613351  0.66914711    -0.03400
Br1207     Br  0.41808619  0.18724866  0.66213119    -0.04300
Br1208     Br  0.30197886  0.26097387  0.62449032    -0.00300
C1209       C  0.18851781  0.00793736  0.57535725     0.01100
C1210       C  0.14673499  0.00229254  0.58061785     0.03900
C1211       C  0.10683848  0.95934843  0.58018898    -0.12100
C1212       C  0.10684702  0.92248452  0.57335870     0.23200
C1213       C  0.14726822  0.92854350  0.56708522    -0.12700
C1214       C  0.18841155  0.97106998  0.56825680     0.04600
C1215       C  0.06338062  0.87802823  0.57289200     0.27100
C1216       C  0.05351290  0.84568595  0.58354851    -0.13400
C1217       C  0.00815065  0.81021683  0.58568427     0.05100
C1218       C  0.97228464  0.80775827  0.57737125    -0.09400
C1219       C  0.98282345  0.83863893  0.56611728     0.06000
C1220       C  0.02848794  0.87292752  0.56371679    -0.13700
Br1221     Br  0.14589431  0.87829009  0.55708566    -0.05800
Br1222     Br  0.14210335  0.05384353  0.58754376    -0.00200
Br1223     Br  0.99537878  0.76565754  0.60019531     0.00300
Br1224     Br  0.04319547  0.91595841  0.54861099    -0.04100
Br1225     Br  0.24413674  0.97773729  0.56048299     0.00400
Br1226     Br  0.05194287  0.95070039  0.58933720    -0.03400
Br1227     Br  0.10181060  0.85238715  0.59587838    -0.04300
Br1228     Br  0.93481414  0.83859878  0.55500503    -0.00300
C1229       C  0.47795568  0.33854203  0.57634345     0.01100
C1230       C  0.50546895  0.34838343  0.58845651     0.03900
C1231       C  0.54522437  0.39149758  0.58998876    -0.12100
C1232       C  0.55862804  0.42436540  0.57932845     0.23200
C1233       C  0.52994403  0.41590304  0.56770967    -0.12700
C1234       C  0.48909197  0.37351625  0.56638525     0.04600
C1235       C  0.60607654  0.46384468  0.57930078     0.27100
C1236       C  0.61617087  0.50740731  0.58418141    -0.13400
C1237       C  0.66175359  0.54431543  0.58397696     0.05100
C1238       C  0.69717964  0.53737014  0.57898944    -0.09400
C1239       C  0.68694075  0.49305133  0.57466495     0.06000
C1240       C  0.64159417  0.45672053  0.57465687    -0.13700
Br1241     Br  0.54850119  0.46119816  0.55313455    -0.05800
Br1242     Br  0.49248593  0.30211305  0.60245785    -0.00200
Br1243     Br  0.67514205  0.60450749  0.58985360     0.00300
Br1244     Br  0.62792481  0.39685502  0.56810368    -0.04100
Br1245     Br  0.44826819  0.36385006  0.55099541     0.00400
Br1246     Br  0.58402831  0.40462576  0.60616140    -0.03400
Br1247     Br  0.56734465  0.51620116  0.59097332    -0.04300
Br1248     Br  0.73500442  0.48105331  0.56897467    -0.00300
C1249       C  0.17568950  0.84368794  0.37217168     0.01100
C1250       C  0.18897808  0.88429736  0.36452067     0.03900
C1251       C  0.18553006  0.88286858  0.34997211    -0.12100
C1252       C  0.16929765  0.84097391  0.34292988     0.23200
C1253       C  0.15614384  0.80029419  0.35050129    -0.12700
C1254       C  0.15913564  0.80159254  0.36514115     0.04600
C1255       C  0.17058127  0.84104454  0.32753074     0.27100
C1256       C  0.13319165  0.83635719  0.31956785    -0.13400
C1257       C  0.13594961  0.83847469  0.30492874     0.05100
C1258       C  0.17646756  0.84615515  0.29830517    -0.09400
C1259       C  0.21448772  0.85290442  0.30637647     0.06000
C1260       C  0.21122251  0.84950602  0.32090443    -0.13700
Br1261     Br  0.13377897  0.74300577  0.34073852    -0.05800
Br1262     Br  0.21291862  0.94248382  0.37397438    -0.00200
Br1263     Br  0.08390380  0.82925047  0.29399613     0.00300
Br1264     Br  0.26272722  0.85692646  0.33185369    -0.04100
Br1265     Br  0.13839638  0.74564338  0.37554279     0.00400
Br1266     Br  0.20330680  0.93844286  0.33957368    -0.03400
Br1267     Br  0.07854966  0.82731633  0.32878171    -0.04300
Br1268     Br  0.27230490  0.86942551  0.29763025    -0.00300
C1269       C  0.82155169  0.81110760  0.43266734     0.01100
C1270       C  0.83319188  0.78470357  0.42401765     0.03900
C1271       C  0.87681412  0.78902906  0.42506988    -0.12100
C1272       C  0.90904899  0.82034117  0.43457620     0.23200
C1273       C  0.89595104  0.84314541  0.44417348    -0.12700
C1274       C  0.85202733  0.83826777  0.44333069     0.04600
C1275       C  0.95817522  0.83527768  0.43280938     0.27100
C1276       C  0.97815509  0.81253943  0.43964119    -0.13400
C1277       C  0.02458474  0.82628664  0.43730922     0.05100
C1278       C  0.05103582  0.86300464  0.42809591    -0.09400
C1279       C  0.03129316  0.88739369  0.42195458     0.06000
C1280       C  0.98485767  0.87284968  0.42405949    -0.13700
Br1281     Br  0.93990584  0.88422686  0.45762025    -0.05800
Br1282     Br  0.78993958  0.74382723  0.41039486    -0.00200
Br1283     Br  0.05071641  0.79362095  0.44650775     0.00300
Br1284     Br  0.95738336  0.90405456  0.41468221    -0.04100
Br1285     Br  0.83621820  0.87303640  0.45584740     0.00400
Br1286     Br  0.89386606  0.75469784  0.41284779    -0.03400
Br1287     Br  0.94127449  0.76204483  0.45193558    -0.04300
Br1288     Br  0.06807230  0.94293723  0.41135262    -0.00300
C1289       C  0.31985014  0.85069995  0.42478015     0.01100
C1290       C  0.35674528  0.89066486  0.41896492     0.03900
C1291       C  0.40098075  0.89544586  0.41832976    -0.12100
C1292       C  0.40847739  0.86039229  0.42349607     0.23200
C1293       C  0.37144131  0.82006612  0.42891805    -0.12700
C1294       C  0.32739216  0.81486209  0.42933926     0.04600
C1295       C  0.45478544  0.86464506  0.42336779     0.27100
C1296       C  0.46555361  0.84208772  0.41300672    -0.13400
C1297       C  0.50296460  0.83462235  0.41476210     0.05100
C1298       C  0.53180260  0.85224328  0.42660683    -0.09400
C1299       C  0.52350071  0.87917977  0.43623916     0.06000
C1300       C  0.48455058  0.88427625  0.43478505    -0.13700
Br1301     Br  0.38148792  0.77206462  0.43617756    -0.05800
Br1302     Br  0.34733273  0.93954470  0.41244195    -0.00200
Br1303     Br  0.51041707  0.79556186  0.40160157     0.00300
Br1304     Br  0.47022497  0.91598077  0.44885114    -0.04100
Br1305     Br  0.27720952  0.75717657  0.43582886     0.00400
Br1306     Br  0.45172389  0.95023113  0.41071121    -0.03400
Br1307     Br  0.42685656  0.81905315  0.39676020    -0.04300
Br1308     Br  0.56530253  0.90981250  0.45148563    -0.00300
C1309       C  0.31683136  0.09896911  0.52722025     0.01100
C1310       C  0.32876860  0.06427076  0.52722497     0.03900
C1311       C  0.31262924  0.03101381  0.51661543    -0.12100
C1312       C  0.28411373  0.03194531  0.50601388     0.23200
C1313       C  0.27241487  0.06678560  0.50592887    -0.12700
C1314       C  0.28845974  0.10002044  0.51656451     0.04600
C1315       C  0.26619678  0.99603651  0.49502981     0.27100
C1316       C  0.29368657  0.00030335  0.48347476    -0.13400
C1317       C  0.27675227  0.96646700  0.47304557     0.05100
C1318       C  0.23200581  0.92851435  0.47402895    -0.09400
C1319       C  0.20464276  0.92393415  0.48563263     0.06000
C1320       C  0.22183097  0.95744911  0.49618118    -0.13700
Br1321     Br  0.23438348  0.06879984  0.49119762    -0.05800
Br1322     Br  0.36446100  0.06017733  0.54233357    -0.00200
Br1323     Br  0.31408508  0.97318092  0.45704117     0.00300
Br1324     Br  0.18469766  0.95073648  0.51221097    -0.04100
Br1325     Br  0.27178160  0.14718727  0.51651677     0.00400
Br1326     Br  0.32882811  0.98348441  0.51667417    -0.03400
Br1327     Br  0.35419287  0.05318655  0.48181514    -0.04300
Br1328     Br  0.14387358  0.87135191  0.48708620    -0.00300
C1329       C  0.18095972  0.35451891  0.37017289     0.01100
C1330       C  0.18896398  0.32057829  0.36429837     0.03900
C1331       C  0.18875190  0.31539368  0.34982405    -0.12100
C1332       C  0.18458055  0.34649247  0.34099291     0.23200
C1333       C  0.17993935  0.38256549  0.34678030    -0.12700
C1334       C  0.17709194  0.38597272  0.36134862     0.04600
C1335       C  0.18429435  0.34036158  0.32565830     0.27100
C1336       C  0.22534975  0.35168721  0.31865871    -0.13400
C1337       C  0.22494832  0.34505257  0.30421234     0.05100
C1338       C  0.18407701  0.32962213  0.29652681    -0.09400
C1339       C  0.14266846  0.31657081  0.30359460     0.06000
C1340       C  0.14267851  0.32097314  0.31815909    -0.13700
Br1341     Br  0.17499753  0.42570934  0.33467883    -0.05800
Br1342     Br  0.19887996  0.27970392  0.37613815    -0.00200
Br1343     Br  0.28010521  0.35542837  0.29499525     0.00300
Br1344     Br  0.08568134  0.30064465  0.32787574    -0.04100
Br1345     Br  0.16366499  0.43078261  0.36907228     0.00400
Br1346     Br  0.19028454  0.26321746  0.34207170    -0.03400
Br1347     Br  0.28241270  0.37738413  0.32883289    -0.04300
Br1348     Br  0.08633226  0.29578090  0.29332350    -0.00300
C1349       C  0.14995151  0.21098785  0.42461582     0.01100
C1350       C  0.12857161  0.17006049  0.41667263     0.03900
C1351       C  0.14085021  0.13609697  0.41858368    -0.12100
C1352       C  0.17382907  0.14187808  0.42862642     0.23200
C1353       C  0.19345323  0.18130379  0.43710284    -0.12700
C1354       C  0.18165875  0.21583596  0.43512631     0.04600
C1355       C  0.18693838  0.10574127  0.43015581     0.27100
C1356       C  0.16015544  0.06672762  0.43842480    -0.13400
C1357       C  0.16692090  0.02861499  0.43783717     0.05100
C1358       C  0.19993882  0.02889812  0.42871803    -0.09400
C1359       C  0.22859572  0.06908759  0.42112006     0.06000
C1360       C  0.22239989  0.10752678  0.42193798    -0.13700
Br1361     Br  0.23617659  0.18742136  0.45148714    -0.05800
Br1362     Br  0.07952815  0.15806551  0.40380478    -0.00200
Br1363     Br  0.12768286  0.97448847  0.44858042     0.00300
Br1364     Br  0.26051725  0.16176145  0.41112824    -0.04100
Br1365     Br  0.20998468  0.26983119  0.44669119     0.00400
Br1366     Br  0.11177113  0.08074778  0.40754543    -0.03400
Br1367     Br  0.11161587  0.06429557  0.44966747    -0.04300
Br1368     Br  0.27549870  0.07081013  0.40927358    -0.00300
C1369       C  0.16583985  0.48981752  0.42261511     0.01100
C1370       C  0.13105187  0.48771685  0.41380197     0.03900
C1371       C  0.12532787  0.52646696  0.41227849    -0.12100
C1372       C  0.15431974  0.56746009  0.41947479     0.23200
C1373       C  0.18995535  0.57016222  0.42782091    -0.12700
C1374       C  0.19585759  0.53188576  0.42940056     0.04600
C1375       C  0.14816313  0.60837118  0.41866760     0.27100
C1376       C  0.17473935  0.64403022  0.40928957    -0.13400
C1377       C  0.17970734  0.68792497  0.41107425     0.05100
C1378       C  0.15669598  0.69608519  0.42207523    -0.09400
C1379       C  0.12674677  0.65890566  0.43067102     0.06000
C1380       C  0.12294074  0.61545969  0.42904620    -0.13700
Br1381     Br  0.23097872  0.62703705  0.43720979    -0.05800
Br1382     Br  0.08961706  0.43146121  0.40434730    -0.00200
Br1383     Br  0.22305696  0.73756951  0.39945070     0.00300
Br1384     Br  0.08575711  0.56616419  0.44169289    -0.04100
Br1385     Br  0.24695639  0.53904318  0.44061800     0.00400
Br1386     Br  0.07760989  0.52365169  0.40048369    -0.03400
Br1387     Br  0.20744323  0.63328365  0.39469363    -0.04300
Br1388     Br  0.09124448  0.66719940  0.44491105    -0.00300
C1389       C  0.53655976  0.68380810  0.42776373     0.01100
C1390       C  0.52356315  0.66535276  0.41409973     0.03900
C1391       C  0.48413135  0.62166482  0.41200402    -0.12100
C1392       C  0.45569083  0.59696220  0.42326903     0.23200
C1393       C  0.47008764  0.61349944  0.43685339    -0.12700
C1394       C  0.51159526  0.65474553  0.43912679     0.04600
C1395       C  0.41001974  0.55452063  0.42096730     0.27100
C1396       C  0.37296174  0.55805702  0.41540894    -0.13400
C1397       C  0.32873445  0.51905372  0.41471859     0.05100
C1398       C  0.32016758  0.47725109  0.42074250    -0.09400
C1399       C  0.35733530  0.47294174  0.42563887     0.06000
C1400       C  0.40234612  0.51098665  0.42527365    -0.13700
Br1401     Br  0.43146733  0.58083755  0.45250958    -0.05800
Br1402     Br  0.55846663  0.69822206  0.39792392    -0.00200
Br1403     Br  0.27952327  0.52308354  0.40575016     0.00300
Br1404     Br  0.45338380  0.50387111  0.43102854    -0.04100
Br1405     Br  0.53474177  0.66800655  0.45802282     0.00400
Br1406     Br  0.46824858  0.59528417  0.39361634    -0.03400
Br1407     Br  0.38170097  0.61699587  0.40973640    -0.04300
Br1408     Br  0.34614492  0.41484890  0.43295513    -0.00300
C1409       C  0.98523707  0.19826897  0.43070541     0.01100
C1410       C  0.98319774  0.17227406  0.44250685     0.03900
C1411       C  0.94518283  0.12797795  0.44446075    -0.12100
C1412       C  0.90970650  0.10914330  0.43447929     0.23200
C1413       C  0.91030830  0.13636994  0.42322781    -0.12700
C1414       C  0.94768061  0.18099812  0.42145366     0.04600
C1415       C  0.87546835  0.05917434  0.43463508     0.27100
C1416       C  0.88729959  0.02822551  0.42874797    -0.13400
C1417       C  0.85420340  0.98152566  0.42749077     0.05100
C1418       C  0.80861694  0.96516266  0.43195779    -0.09400
C1419       C  0.79749672  0.99571638  0.43862045     0.06000
C1420       C  0.83085441  0.04271856  0.43986336    -0.13700
Br1421     Br  0.86168490  0.11106437  0.40959566    -0.05800
Br1422     Br  0.03459627  0.19476825  0.45512705    -0.00200
Br1423     Br  0.87209343  0.93982189  0.41983043     0.00300
Br1424     Br  0.81547726  0.08522071  0.44827681    -0.04100
Br1425     Br  0.94848384  0.21804979  0.40596993     0.00400
Br1426     Br  0.94313194  0.09143784  0.46021247    -0.03400
Br1427     Br  0.94879286  0.05028627  0.42191116    -0.04300
Br1428     Br  0.73632863  0.97400590  0.44543469    -0.00300
C1429       C  0.81429090  0.15840165  0.62793635     0.01100
C1430       C  0.80736092  0.11840828  0.63516531     0.03900
C1431       C  0.81082777  0.11823753  0.64976009    -0.12100
C1432       C  0.81786982  0.15654239  0.65750267     0.23200
C1433       C  0.81945442  0.19434045  0.65058161    -0.12700
C1434       C  0.81804313  0.19560336  0.63588102     0.04600
C1435       C  0.82367802  0.15711802  0.67292451     0.27100
C1436       C  0.78510230  0.13471110  0.68163043    -0.13400
C1437       C  0.79058634  0.13749117  0.69619068     0.05100
C1438       C  0.83447402  0.16452929  0.70222614    -0.09400
C1439       C  0.87329191  0.18504821  0.69348404     0.06000
C1440       C  0.86788863  0.18040330  0.67890490    -0.13700
Br1441     Br  0.82491279  0.24503642  0.66141499    -0.05800
Br1442     Br  0.79055129  0.06203417  0.62547306    -0.00200
Br1443     Br  0.73774859  0.10322792  0.70784880     0.00300
Br1444     Br  0.92097908  0.20661901  0.66700361    -0.04100
Br1445     Br  0.82302629  0.24939194  0.62698932     0.00400
Br1446     Br  0.80777452  0.06600382  0.65923867    -0.03400
Br1447     Br  0.72453463  0.10143068  0.67355829    -0.04300
Br1448     Br  0.93361275  0.22294264  0.70129584    -0.00300
C1449       C  0.85892514  0.53669499  0.58132478     0.01100
C1450       C  0.83447248  0.50297394  0.59162300     0.03900
C1451       C  0.83726361  0.46250586  0.59212574    -0.12100
C1452       C  0.86426543  0.45531092  0.58242474     0.23200
C1453       C  0.89172273  0.49041548  0.57300569    -0.12700
C1454       C  0.88942305  0.53110834  0.57252537     0.04600
C1455       C  0.85757294  0.40842473  0.58054952     0.27100
C1456       C  0.88759662  0.39534853  0.58659289    -0.13400
C1457       C  0.88087942  0.35091077  0.58426802     0.05100
C1458       C  0.84281576  0.31878473  0.57642603    -0.09400
C1459       C  0.81191519  0.33172969  0.57082665     0.06000
C1460       C  0.82018767  0.37664945  0.57250591    -0.13700
Br1461     Br  0.93004144  0.48107986  0.56008993    -0.05800
Br1462     Br  0.79341920  0.50911581  0.60427608    -0.00200
Br1463     Br  0.92534229  0.33527899  0.59102592     0.00300
Br1464     Br  0.78053051  0.39513561  0.56348720    -0.04100
Br1465     Br  0.92831378  0.57908959  0.55971836     0.00400
Br1466     Br  0.80125843  0.41477126  0.60538279    -0.03400
Br1467     Br  0.93791561  0.43854658  0.59793502    -0.04300
Br1468     Br  0.75646509  0.28772919  0.56129968    -0.00300
C1469       C  0.84407759  0.04815265  0.57154998     0.01100
C1470       C  0.86756218  0.03665331  0.56165932     0.03900
C1471       C  0.85863402  0.99118268  0.56082800    -0.12100
C1472       C  0.82818574  0.95817109  0.57033211     0.23200
C1473       C  0.80272330  0.96908211  0.57954753    -0.12700
C1474       C  0.80918143  0.01354177  0.57964186     0.04600
C1475       C  0.82834038  0.91476647  0.57222964     0.27100
C1476       C  0.79302793  0.87342302  0.56668931    -0.13400
C1477       C  0.79164411  0.83177912  0.56970693     0.05100
C1478       C  0.82646521  0.83187984  0.57797858    -0.09400
C1479       C  0.86296653  0.87398299  0.58298065     0.06000
C1480       C  0.86314093  0.91501160  0.58039832    -0.13700
Br1481     Br  0.76289580  0.92472698  0.59309468    -0.05800
Br1482     Br  0.91496523  0.08345269  0.55023046    -0.00200
Br1483     Br  0.74080874  0.77490782  0.56309223     0.00300
Br1484     Br  0.91066880  0.97181525  0.58839029    -0.04100
Br1485     Br  0.76986078  0.02713520  0.59065934     0.00400
Br1486     Br  0.89094598  0.97467498  0.54761704    -0.03400
Br1487     Br  0.74642447  0.87425670  0.55518591    -0.04300
Br1488     Br  0.91480636  0.87702740  0.59275742    -0.00300
C1489       C  0.48254964  0.18118304  0.57771843     0.01100
C1490       C  0.47872370  0.14343016  0.58529598     0.03900
C1491       C  0.51670473  0.13628473  0.58624218    -0.12100
C1492       C  0.55810147  0.16616295  0.57935277     0.23200
C1493       C  0.56218775  0.20451100  0.57216271    -0.12700
C1494       C  0.52529807  0.21283338  0.57176286     0.04600
C1495       C  0.59846646  0.15911629  0.57984974     0.27100
C1496       C  0.63520850  0.18607628  0.58888980    -0.13400
C1497       C  0.67758427  0.18761423  0.58737050     0.05100
C1498       C  0.68318497  0.16107082  0.57699159    -0.09400
C1499       C  0.64521114  0.13142988  0.56864980     0.06000
C1500       C  0.60320365  0.13091756  0.56994984    -0.13700
Br1501     Br  0.61839612  0.24538965  0.56251260    -0.05800
Br1502     Br  0.42139971  0.10081882  0.59392168    -0.00200
Br1503     Br  0.72899725  0.23012283  0.59859834     0.00300
Br1504     Br  0.55296033  0.09385823  0.55757569    -0.04100
Br1505     Br  0.53462941  0.26936352  0.56352465     0.00400
Br1506     Br  0.51226540  0.08552167  0.59681162    -0.03400
Br1507     Br  0.62809489  0.22352774  0.60272612    -0.04300
Br1508     Br  0.65076532  0.09153448  0.55539802    -0.00300
C1509       C  0.21120227  0.17941980  0.57025938     0.01100
C1510       C  0.21155935  0.21648311  0.57718133     0.03900
C1511       C  0.17573464  0.22582419  0.57505637    -0.12100
C1512       C  0.14064573  0.19957577  0.56547620     0.23200
C1513       C  0.14405159  0.16733465  0.55700110    -0.12700
C1514       C  0.17875259  0.15644786  0.55954909     0.04600
C1515       C  0.09601580  0.19794898  0.56674775     0.27100
C1516       C  0.06196521  0.16324717  0.57503389    -0.13400
C1517       C  0.02023281  0.16193988  0.57723853     0.05100
C1518       C  0.01278508  0.19679517  0.57170084    -0.09400
C1519       C  0.04648575  0.23077976  0.56298381     0.06000
C1520       C  0.08797695  0.23115754  0.56047173    -0.13700
Br1521     Br  0.09815850  0.13506605  0.54289379    -0.05800
Br1522     Br  0.26127602  0.25468085  0.58952222    -0.00200
Br1523     Br  0.97268892  0.11000884  0.58724177     0.00300
Br1524     Br  0.13433633  0.27741931  0.54869277    -0.04100
Br1525     Br  0.17811276  0.10675386  0.54932953     0.00400
Br1526     Br  0.17226937  0.27155000  0.58622480    -0.03400
Br1527     Br  0.07309085  0.11777733  0.58377403    -0.04300
Br1528     Br  0.03728513  0.27794405  0.55489052    -0.00300
C1529       C  0.91716370  0.23241881  0.52605225     0.01100
C1530       C  0.95441966  0.27757623  0.52734342     0.03900
C1531       C  0.98921865  0.29557112  0.51721551    -0.12100
C1532       C  0.98552997  0.26970069  0.50529333     0.23200
C1533       C  0.94715925  0.22539330  0.50365820    -0.12700
C1534       C  0.91370124  0.20632387  0.51419599     0.04600
C1535       C  0.02163723  0.28939178  0.49438323     0.27100
C1536       C  0.01842371  0.31585868  0.48351840    -0.13400
C1537       C  0.05183886  0.33349263  0.47297274     0.05100
C1538       C  0.08857991  0.32457130  0.47320345    -0.09400
C1539       C  0.09200909  0.29843146  0.48412847     0.06000
C1540       C  0.05893089  0.28135126  0.49478697    -0.13700
Br1541     Br  0.94042121  0.19122303  0.48688375    -0.05800
Br1542     Br  0.95812982  0.31466839  0.54312350    -0.00200
Br1543     Br  0.04551606  0.36721989  0.45767485     0.00300
Br1544     Br  0.06434689  0.24664735  0.50993011    -0.04100
Br1545     Br  0.86257672  0.14487332  0.51229654     0.00400
Br1546     Br  0.04266117  0.35527377  0.51976437    -0.03400
Br1547     Br  0.96737245  0.32677659  0.48294127    -0.04300
Br1548     Br  0.14195698  0.28582252  0.48437297    -0.00300
loop_ 
_geom_bond_atom_site_label_1 
_geom_bond_atom_site_label_2 
_geom_bond_distance 
_geom_bond_site_symmetry_2 
_ccdc_geom_bond_type 
O1           Ni7   1.917       .  S
O1           C22   1.266       .  A
O2          Ni25   1.900       .  S
O2           C11   1.263       .  A
O3           Ni7   1.905       .  S
O3          Ni25   1.912       .  S
O3          Ni19   1.919       .  S
O3           H26   0.966       .  S
C4           O21   1.278       .  A
C4           O13   1.281       .  A
C4         C1498   1.488       .  S
O5          Ni24   1.948       .  S
O5           C11   1.274       .  A
O6          Ni24   1.893       .  S
O6            C8   1.268       .  A
Ni7          O10   1.917       .  S
Ni7          O12   1.904       .  S
C8           O18   1.279       .  A
C8         C1458   1.484       .  S
O9          Ni25   1.923       .  S
O9           C15   1.275       .  A
O10          C15   1.274       .  A
C11        C1529   1.481       .  S
O12          C14   1.268       .  A
O13         Ni24   1.937       .  S
C14          O20   1.266       .  A
C14        C1469   1.470       .  S
C15        C1518   1.486   1_655  S
H16          O17   0.966       .  S
O17         Ni25   1.912       .  S
O17         Ni19   1.915       .  S
O17         Ni24   1.900       .  S
O18         Ni19   1.945       .  S
Ni19         O23   1.940       .  S
Ni19         O21   1.922       .  S
O20         Ni25   1.915       .  S
C22          O23   1.276       .  A
C22        C1429   1.507       .  S
O27         Ni33   1.895       .  S
O27          C48   1.265       .  A
O28         Ni51   1.890       .  S
O28          C37   1.258       .  A
O29         Ni33   1.917       .  S
O29         Ni51   1.916       .  S
O29         Ni45   1.941       .  S
O29          H52   0.965       .  S
C30          O47   1.279       .  A
C30          O39   1.280       .  A
C30        C1398   1.486       .  S
O31         Ni50   1.952       .  S
O31          C37   1.274       .  A
O32         Ni50   1.899       .  S
O32          C34   1.268       .  A
Ni33         O36   1.921       .  S
Ni33         O38   1.906       .  S
C34          O44   1.280       .  A
C34        C1369   1.496       .  S
O35         Ni51   1.914       .  S
O35          C41   1.266       .  A
O36          C41   1.267       .  A
C37        C1538   1.478       .  S
O38          C40   1.269       .  A
O39         Ni50   1.936       .  S
C40          O46   1.276       .  A
C40        C1349   1.492       .  S
C41        C1409   1.478   1_455  S
H42          O43   0.956       .  S
O43         Ni51   1.902       .  S
O43         Ni45   1.914       .  S
O43         Ni50   1.910       .  S
O44         Ni45   1.952       .  S
Ni45         O49   1.933       .  S
Ni45         O47   1.931       .  S
O46         Ni51   1.953       .  S
C48          O49   1.276       .  A
C48        C1329   1.483       .  S
O53         Ni59   1.913       .  S
O53          C74   1.264       .  A
O54         Ni77   1.894       .  S
O54          C63   1.263       .  A
O55         Ni59   1.908       .  S
O55         Ni77   1.903       .  S
O55         Ni71   1.925       .  S
O55          H78   0.966       .  S
C56          O73   1.278       .  A
C56          O65   1.282       .  A
C56        C1378   1.494       .  S
O57         Ni76   1.947       .  S
O57          C63   1.275       .  A
O58         Ni76   1.898       .  S
O58          C60   1.268       .  A
Ni59         O62   1.928       .  S
Ni59         O64   1.896       .  S
C60          O70   1.280       .  A
C60        C1289   1.492       .  S
O61         Ni77   1.929       .  S
O61          C67   1.279       .  A
O62          C67   1.278       .  A
C63        C1318   1.475       .  S
O64          C66   1.265       .  A
O65         Ni76   1.936       .  S
C66          O72   1.268       .  A
C66        C1278   1.481       .  S
C67        C1358   1.486   1_565  S
H68          O69   0.968       .  S
O69         Ni77   1.915       .  S
O69         Ni71   1.906       .  S
O69         Ni76   1.899       .  S
O70         Ni71   1.953       .  S
Ni71         O75   1.926       .  S
Ni71         O73   1.924       .  S
O72         Ni77   1.926       .  S
C74          O75   1.271       .  A
C74        C1249   1.475       .  S
O79         Ni85   1.923       .  S
O79         C100   1.267       .  A
O80        Ni103   1.895       .  S
O80          C89   1.262       .  A
O81         Ni85   1.912       .  S
O81        Ni103   1.914       .  S
O81         Ni97   1.908       .  S
O81         H104   0.966       .  S
C82          O99   1.272       .  A
C82          O91   1.281       .  A
C82        C1229   1.485       .  S
O83        Ni102   1.950       .  S
O83          C89   1.275       .  A
O84        Ni102   1.893       .  S
O84          C86   1.268       .  A
Ni85         O88   1.912       .  S
Ni85         O90   1.914       .  S
C86          O96   1.280       .  A
C86        C1489   1.488       .  S
O87        Ni103   1.921       .  S
O87          C93   1.275       .  A
O88          C93   1.274       .  A
C89        C1309   1.480       .  S
O90          C92   1.270       .  A
O91        Ni102   1.938       .  S
C92          O98   1.264       .  A
C92        C1509   1.481       .  S
C93        C1209   1.484       .  S
H94          O95   0.966       .  S
O95        Ni103   1.910       .  S
O95         Ni97   1.913       .  S
O95        Ni102   1.902       .  S
O96         Ni97   1.953       .  S
Ni97        O101   1.929       .  S
Ni97         O99   1.904       .  S
O98        Ni103   1.914       .  S
C100        O101   1.272       .  A
C100       C1198   1.495       .  S
O105       Ni111   1.914       .  S
O105        C126   1.266       .  A
O106       Ni129   1.900       .  S
O106        C115   1.264       .  A
O107       Ni111   1.901       .  S
O107       Ni129   1.900       .  S
O107       Ni123   1.918       .  S
O107        H130   0.966       .  S
C108        O125   1.282       .  A
C108        O117   1.281       .  A
C108       C1298   1.497       .  S
O109       Ni128   1.957       .  S
O109        C115   1.277       .  A
O110       Ni128   1.904       .  S
O110        C112   1.267       .  A
Ni111       O114   1.924       .  S
Ni111       O116   1.901       .  S
C112        O122   1.277       .  A
C112       C1389   1.518       .  S
O113       Ni129   1.911       .  S
O113        C119   1.274       .  A
O114        C119   1.278       .  A
C115       C1169   1.485       .  S
O116        C118   1.267       .  A
O117       Ni128   1.930       .  S
C118        O124   1.275       .  A
C118       C1418   1.489       .  S
C119       C1269   1.475       .  S
H120        O121   0.966       .  S
O121       Ni129   1.907       .  S
O121       Ni123   1.912       .  S
O121       Ni128   1.904       .  S
O122       Ni123   1.954       .  S
Ni123       O127   1.941       .  S
Ni123       O125   1.931       .  S
O124       Ni129   1.946       .  S
C126        O127   1.275       .  A
C126       C1149   1.487       .  S
O131       Ni137   1.900       .  S
O131        C152   1.262       .  A
O132       Ni155   1.900       .  S
O132        C141   1.264       .  A
O133       Ni137   1.905       .  S
O133       Ni155   1.897       .  S
O133       Ni149   1.921       .  S
O133        H156   0.966       .  S
C134        O151   1.281       .  A
C134        O143   1.283       .  A
C134       C1449   1.494       .  S
O135       Ni154   1.954       .  S
O135        C141   1.276       .  A
O136       Ni154   1.890       .  S
O136        C138   1.267       .  A
Ni137       O140   1.911       .  S
Ni137       O142   1.907       .  S
C138        O148   1.277       .  A
C138       C1238   1.478       .  S
O139       Ni155   1.915       .  S
O139        C145   1.276       .  A
O140        C145   1.275       .  A
C141       C1178   1.489       .  S
O142        C144   1.267       .  A
O143       Ni154   1.936       .  S
C144        O150   1.267       .  A
C144       C1218   1.481       .  S
C145       C1478   1.475       .  S
H146        O147   0.966       .  S
O147       Ni155   1.911       .  S
O147       Ni149   1.912       .  S
O147       Ni154   1.894       .  S
O148       Ni149   1.941       .  S
Ni149       O153   1.940       .  S
Ni149       O151   1.928       .  S
O150       Ni155   1.918       .  S
C152        O153   1.273       .  A
C152       C1138   1.481       .  S
O157       Ni163   1.902       .  S
O157        C178   1.259       .  A
O158       Ni181   1.901       .  S
O158        C167   1.265       .  A
O159       Ni163   1.907       .  S
O159       Ni181   1.904       .  S
O159       Ni175   1.916   1_455  S
O159        H182   0.966       .  S
C160        O177   1.273       .  A
C160        O169   1.283       .  A
C160       C1049   1.478       .  S
O161       Ni180   1.947       .  S
O161        C167   1.276   1_655  A
O162       Ni180   1.893       .  S
O162        C164   1.266       .  A
Ni163       O166   1.909       .  S
Ni163       O168   1.902       .  S
C164        O174   1.278       .  A
C164       C1089   1.493       .  S
O165       Ni181   1.926       .  S
O165        C171   1.278       .  A
O166        C171   1.274       .  A
C167       C1118   1.483       .  S
O168        C170   1.266       .  A
O169       Ni180   1.944       .  S
C170        O176   1.266       .  A
C170       C1078   1.478       .  S
C171       C1029   1.478       .  S
H172        O173   0.966       .  S
O173       Ni181   1.913       .  S
O173       Ni175   1.910   1_455  S
O173       Ni180   1.892   1_455  S
O174       Ni175   1.943       .  S
Ni175       O179   1.931       .  S
Ni175       O177   1.900       .  S
O176       Ni181   1.920       .  S
C178        O179   1.268   1_455  A
C178       C1018   1.472   1_455  S
O183       Ni189   1.917       .  S
O183        C204   1.265       .  A
O184       Ni207   1.905       .  S
O184        C193   1.267       .  A
O185       Ni189   1.904       .  S
O185       Ni207   1.907       .  S
O185       Ni201   1.916       .  S
O185        H208   0.966       .  S
C186        O203   1.278       .  A
C186        O195   1.281       .  A
C186        C929   1.482       .  S
O187       Ni206   1.950       .  S
O187        C193   1.278       .  A
O188       Ni206   1.914       .  S
O188        C190   1.272       .  A
Ni189       O192   1.916       .  S
Ni189       O194   1.902       .  S
C190        O200   1.274       .  A
C190        C978   1.490       .  S
O191       Ni207   1.926       .  S
O191        C197   1.278       .  A
O192        C197   1.276       .  A
C193       C1109   1.483       .  S
O194        C196   1.268       .  A
O195       Ni206   1.929       .  S
C196        O202   1.269       .  A
C196        C998   1.479       .  S
C197        C958   1.481       .  S
H198        O199   0.966       .  S
O199       Ni207   1.908       .  S
O199       Ni201   1.903       .  S
O199       Ni206   1.893       .  S
O200       Ni201   1.932       .  S
Ni201       O205   1.921       .  S
Ni201       O203   1.921       .  S
O202       Ni207   1.927       .  S
C204        O205   1.269       .  A
C204       C1338   1.480       .  S
O209       Ni215   1.906       .  S
O209        C230   1.263       .  A
O210       Ni233   1.916       .  S
O210        C219   1.269       .  A
O211       Ni215   1.896       .  S
O211       Ni233   1.901       .  S
O211       Ni227   1.922       .  S
O211        H234   0.966       .  S
C212        O229   1.284       .  A
C212        O221   1.283       .  A
C212        C969   1.489       .  S
O213       Ni232   1.957       .  S
O213        C219   1.278       .  A
O214       Ni232   1.904       .  S
O214        C216   1.270       .  A
Ni215       O218   1.914       .  S
Ni215       O220   1.904       .  S
C216        O226   1.277       .  A
C216        C878   1.489       .  S
O217       Ni233   1.923       .  S
O217        C223   1.277       .  A
O218        C223   1.276       .  A
C219        C918   1.520       .  S
O220        C222   1.267       .  A
O221       Ni232   1.930       .  S
C222        O228   1.272       .  A
C222        C889   1.488       .  S
C223        C989   1.480       .  S
H224        O225   0.966       .  S
O225       Ni233   1.902       .  S
O225       Ni227   1.909       .  S
O225       Ni232   1.882       .  S
O226       Ni227   1.941       .  S
Ni227       O231   1.946       .  S
Ni227       O229   1.932       .  S
O228       Ni233   1.935       .  S
C230        O231   1.277       .  A
C230       C1158   1.489       .  S
O235       Ni241   1.905       .  S
O235        C256   1.260       .  A
O236       Ni259   1.921       .  S
O236        C245   1.270       .  A
O237       Ni241   1.906       .  S
O237       Ni259   1.905       .  S
O237       Ni253   1.913       .  S
O237        H260   0.966       .  S
C238        O255   1.275       .  A
C238        O247   1.282       .  A
C238        C849   1.487       .  S
O239       Ni258   1.946       .  S
O239        C245   1.275       .  A
O240       Ni258   1.890       .  S
O240        C242   1.266       .  A
Ni241       O244   1.908       .  S
Ni241       O246   1.902       .  S
C242        O252   1.278       .  A
C242       C1058   1.483       .  S
O243       Ni259   1.929       .  S
O243        C249   1.280       .  A
O244        C249   1.274       .  A
C245        C909   1.510       .  S
O246        C248   1.266       .  A
O247       Ni258   1.942       .  S
C248        O254   1.267       .  A
C248       C1038   1.476       .  S
C249        C838   1.477       .  S
H250        O251   0.966       .  S
O251       Ni259   1.917       .  S
O251       Ni253   1.914       .  S
O251       Ni258   1.892       .  S
O252       Ni253   1.942       .  S
Ni253       O257   1.935       .  S
Ni253       O255   1.909       .  S
O254       Ni259   1.921       .  S
C256        O257   1.270       .  A
C256        C818   1.474       .  S
O261       Ni267   1.907       .  S
O261        C282   1.262   1_565  A
O262       Ni285   1.911       .  S
O262        C271   1.265       .  A
O263       Ni267   1.910       .  S
O263       Ni285   1.906       .  S
O263       Ni279   1.917   1_565  S
O263        H286   0.966   1_565  S
C264        O281   1.277       .  A
C264        O273   1.284       .  A
C264       C1098   1.483       .  S
O265       Ni284   1.953       .  S
O265        C271   1.276   1_545  A
O266       Ni284   1.892       .  S
O266        C268   1.267       .  A
Ni267       O270   1.916       .  S
Ni267       O272   1.904       .  S
C268        O278   1.279       .  A
C268        C858   1.489       .  S
O269       Ni285   1.918       .  S
O269        C275   1.276       .  A
O270        C275   1.275       .  A
C271        C789   1.514       .  S
O272        C274   1.266       .  A
O273       Ni284   1.939       .  S
C274        O280   1.266       .  A
C274        C829   1.480       .  S
C275       C1069   1.480       .  S
H276        O277   0.966       .  S
O277       Ni285   1.906   1_545  S
O277       Ni279   1.910       .  S
O277       Ni284   1.887       .  S
O278       Ni279   1.946       .  S
Ni279       O283   1.940       .  S
Ni279       O281   1.913       .  S
O280       Ni285   1.923       .  S
C282        O283   1.272       .  A
C282        C769   1.487       .  S
O287       Ni293   1.910       .  S
O287        C308   1.264       .  A
O288       Ni311   1.912       .  S
O288        C297   1.268       .  A
O289       Ni293   1.902       .  S
O289       Ni311   1.901       .  S
O289       Ni305   1.913       .  S
O289        H312   0.966       .  S
C290        O307   1.277       .  A
C290        O299   1.283       .  A
C290        C869   1.485       .  S
O291       Ni310   1.956       .  S
O291        C297   1.278       .  A
O292       Ni310   1.905       .  S
O292        C294   1.270       .  A
Ni293       O296   1.911       .  S
Ni293       O298   1.901       .  S
C294        O304   1.273       .  A
C294        C938   1.478       .  S
O295       Ni311   1.926       .  S
O295        C301   1.279       .  A
O296        C301   1.275       .  A
C297        C798   1.512       .  S
O298        C300   1.267       .  A
O299       Ni310   1.938       .  S
C300        O306   1.267       .  A
C300        C949   1.484       .  S
C301        C898   1.478       .  S
H302        O303   0.966       .  S
O303       Ni311   1.908       .  S
O303       Ni305   1.904       .  S
O303       Ni310   1.891       .  S
O304       Ni305   1.927       .  S
Ni305       O309   1.923       .  S
Ni305       O307   1.916       .  S
O306       Ni311   1.922       .  S
C308        O309   1.268       .  A
C308       C1258   1.476       .  S
O313       Ni319   1.913       .  S
O313        C334   1.265       .  A
O314       Ni337   1.895       .  S
O314        C323   1.264       .  A
O315       Ni319   1.906       .  S
O315       Ni337   1.908       .  S
O315       Ni331   1.926       .  S
O315        H338   0.966       .  S
C316        O333   1.280       .  A
C316        O325   1.284       .  A
C316        C678   1.493       .  S
O317       Ni336   1.948       .  S
O317        C323   1.276       .  A
O318       Ni336   1.895       .  S
O318        C320   1.267       .  A
Ni319       O322   1.915       .  S
Ni319       O324   1.903       .  S
C320        O330   1.276       .  A
C320        C718   1.487       .  S
O321       Ni337   1.936       .  S
O321        C327   1.278       .  A
O322        C327   1.275       .  A
C323        C758   1.478       .  S
O324        C326   1.268       .  A
O325       Ni336   1.941       .  S
C326        O332   1.268       .  A
C326        C729   1.481       .  S
C327        C698   1.490       .  S
H328        O329   0.966       .  S
O329       Ni337   1.912       .  S
O329       Ni331   1.901       .  S
O329       Ni336   1.890       .  S
O330       Ni331   1.938       .  S
Ni331       O335   1.922       .  S
Ni331       O333   1.926       .  S
O332       Ni337   1.923       .  S
C334        O335   1.269       .  A
C334       C1129   1.475       .  S
O339       Ni345   1.904       .  S
O339        C360   1.262       .  A
O340       Ni363   1.904       .  S
O340        C349   1.268       .  A
O341       Ni345   1.895       .  S
O341       Ni363   1.899       .  S
O341       Ni357   1.919       .  S
O341        H364   0.966       .  S
C342        O359   1.283       .  A
C342        O351   1.279       .  A
C342        C618   1.493       .  S
O343       Ni362   1.947       .  S
O343        C349   1.277       .  A
O344       Ni362   1.910       .  S
O344        C346   1.271       .  A
Ni345       O348   1.914       .  S
Ni345       O350   1.895       .  S
C346        O356   1.274       .  A
C346        C658   1.474       .  S
O347       Ni363   1.925       .  S
O347        C353   1.280       .  A
O348        C353   1.276       .  A
C349        C749   1.488       .  S
O350        C352   1.265       .  A
O351       Ni362   1.928       .  S
C352        O358   1.268       .  A
C352        C629   1.473       .  S
C353        C589   1.482       .  S
H354        O355   0.966       .  S
O355       Ni363   1.913       .  S
O355       Ni357   1.912       .  S
O355       Ni362   1.891       .  S
O356       Ni357   1.933       .  S
Ni357       O361   1.945       .  S
Ni357       O359   1.933       .  S
O358       Ni363   1.926       .  S
C360        O361   1.274       .  A
C360        C809   1.491       .  S
O365       Ni371   1.921       .  S
O365        C386   1.268       .  A
O366       Ni389   1.900       .  S
O366        C375   1.263       .  A
O367       Ni371   1.915       .  S
O367       Ni389   1.911       .  S
O367       Ni383   1.914       .  S
O367        H390   0.966       .  S
C368        O385   1.276       .  A
C368        O377   1.283       .  A
C368        C529   1.492       .  S
O369       Ni388   1.957       .  S
O369        C375   1.278       .  A
O370       Ni388   1.899       .  S
O370        C372   1.269       .  A
Ni371       O374   1.915       .  S
Ni371       O376   1.923       .  S
C372        O382   1.281       .  A
C372        C669   1.492       .  S
O373       Ni389   1.924       .  S
O373        C379   1.276       .  A
O374        C379   1.274       .  A
C375        C578   1.487       .  S
O376        C378   1.272       .  A
O377       Ni388   1.942       .  S
C378        O384   1.265       .  A
C378        C689   1.490       .  S
C379        C549   1.487       .  S
H380        O381   0.966       .  S
O381       Ni389   1.908       .  S
O381       Ni383   1.911       .  S
O381       Ni388   1.897       .  S
O382       Ni383   1.955       .  S
Ni383       O387   1.931       .  S
Ni383       O385   1.912       .  S
O384       Ni389   1.915       .  S
C386        O387   1.273       .  A
C386       C1189   1.496       .  S
O391       Ni397   1.907       .  S
O391        C412   1.261       .  A
O392       Ni415   1.906       .  S
O392        C401   1.267       .  A
O393       Ni397   1.906       .  S
O393       Ni415   1.906       .  S
O393       Ni409   1.918   1_545  S
O393        H416   0.966       .  S
C394        O411   1.277       .  A
C394        O403   1.281       .  A
C394        C649   1.498       .  S
O395       Ni414   1.947       .  S
O395        C401   1.275   1_565  A
O396       Ni414   1.892       .  S
O396        C398   1.267       .  A
Ni397       O400   1.911       .  S
Ni397       O402   1.905       .  S
C398        O408   1.279       .  A
C398        C498   1.480       .  S
O399       Ni415   1.926       .  S
O399        C405   1.278       .  A
O400        C405   1.275       .  A
C401        C569   1.484       .  S
O402        C404   1.267       .  A
O403       Ni414   1.932       .  S
C404        O410   1.268       .  A
C404        C509   1.478       .  S
C405        C638   1.484       .  S
H406        O407   0.966       .  S
O407       Ni415   1.912       .  S
O407       Ni409   1.911   1_545  S
O407       Ni414   1.896   1_545  S
O408       Ni409   1.947       .  S
Ni409       O413   1.942       .  S
Ni409       O411   1.917       .  S
O410       Ni415   1.922       .  S
C412        O413   1.272   1_545  A
C412        C778   1.483       .  S
O417       Ni423   1.903       .  S
O417        C438   1.261   1_655  A
O418       Ni441   1.915       .  S
O418        C427   1.269   1_655  A
O419       Ni423   1.896       .  S
O419       Ni441   1.900       .  S
O419       Ni435   1.922   1_655  S
O419        H442   0.966   1_655  S
C420        O437   1.281       .  A
C420        O429   1.282       .  A
C420        C489   1.495       .  S
O421       Ni440   1.953       .  S
O421        C427   1.278       .  A
O422       Ni440   1.902       .  S
O422        C424   1.269       .  A
Ni423       O426   1.911       .  S
Ni423       O428   1.899       .  S
C424        O434   1.276       .  A
C424        C609   1.495       .  S
O425       Ni441   1.925       .  S
O425        C431   1.278       .  A
O426        C431   1.275       .  A
C427        C469   1.513   1_455  S
O428        C430   1.266       .  A
O429       Ni440   1.934       .  S
C430        O436   1.272       .  A
C430        C598   1.484       .  S
C431        C518   1.478       .  S
H432        O433   0.966       .  S
O433       Ni441   1.905   1_455  S
O433       Ni435   1.911       .  S
O433       Ni440   1.891       .  S
O434       Ni435   1.945       .  S
Ni435       O439   1.940       .  S
Ni435       O437   1.928       .  S
O436       Ni441   1.935       .  S
C438        O439   1.273       .  A
C438       C1009   1.480       .  S
O443       Ni449   1.926       .  S
O443        C464   1.269       .  A
O444       Ni467   1.912       .  S
O444        C453   1.265       .  A
O445       Ni449   1.916       .  S
O445       Ni467   1.911       .  S
O445       Ni461   1.907       .  S
O445        H468   0.966       .  S
C446        O463   1.274       .  A
C446        O455   1.283       .  A
C446        C709   1.488       .  S
O447       Ni466   1.956       .  S
O447        C453   1.275       .  A
O448       Ni466   1.892       .  S
O448        C450   1.267       .  A
Ni449       O452   1.923       .  S
Ni449       O454   1.911       .  S
C450        O460   1.281       .  A
C450        C538   1.487   1_655  S
O451       Ni467   1.904       .  S
O451        C457   1.272       .  A
O452        C457   1.275       .  A
C453        C478   1.518       .  S
O454        C456   1.269       .  A
O455       Ni466   1.939       .  S
C456        O462   1.269       .  A
C456        C558   1.491       .  S
C457        C738   1.476       .  S
H458        O459   0.966       .  S
O459       Ni467   1.899       .  S
O459       Ni461   1.912       .  S
O459       Ni466   1.896       .  S
O460       Ni461   1.956       .  S
Ni461       O465   1.928       .  S
Ni461       O463   1.909       .  S
O462       Ni467   1.932       .  S
C464        O465   1.273       .  A
C464       C1438   1.490       .  S
C469        C470   1.426   1_655  A
C469        C474   1.427       .  A
C470        C471   1.415       .  A
C470       Br482   1.934       .  S
C471        C472   1.406   1_455  A
C471       Br486   1.931       .  S
C472        C475   1.494       .  S
C472        C473   1.404       .  A
C473        C474   1.411       .  A
C473       Br481   1.936       .  S
C474       Br485   1.925       .  S
C475        C476   1.402       .  A
C475        C480   1.405       .  A
C476        C477   1.411       .  A
C476       Br487   1.938       .  S
C477        C478   1.431       .  A
C477       Br483   1.926       .  S
C478        C479   1.428       .  A
C479        C480   1.416       .  A
C479       Br488   1.934       .  S
C480       Br484   1.932       .  S
C489        C490   1.418       .  A
C489        C494   1.417       .  A
C490        C491   1.408       .  A
C490       Br502   1.933       .  S
C491        C492   1.406       .  A
C491       Br506   1.930       .  S
C492        C495   1.486       .  S
C492        C493   1.407       .  A
C493        C494   1.410       .  A
C493       Br501   1.931       .  S
C494       Br505   1.923       .  S
C495        C496   1.407       .  A
C495        C500   1.411       .  A
C496        C497   1.403       .  A
C496       Br507   1.935       .  S
C497        C498   1.415       .  A
C497       Br503   1.933       .  S
C498        C499   1.410       .  A
C499        C500   1.414       .  A
C499       Br508   1.927       .  S
C500       Br504   1.926       .  S
C509        C510   1.412       .  A
C509        C514   1.413       .  A
C510        C511   1.405       .  A
C510       Br522   1.931       .  S
C511        C512   1.407       .  A
C511       Br526   1.930       .  S
C512        C515   1.481       .  S
C512        C513   1.409       .  A
C513        C514   1.408       .  A
C513       Br521   1.930       .  S
C514       Br525   1.931       .  S
C515        C516   1.407       .  A
C515        C520   1.409       .  A
C516        C517   1.401       .  A
C516       Br527   1.936       .  S
C517        C518   1.415       .  A
C517       Br523   1.935       .  S
C518        C519   1.413       .  A
C519        C520   1.411       .  A
C519       Br528   1.930       .  S
C520       Br524   1.927       .  S
C529        C530   1.419       .  A
C529        C534   1.416       .  A
C530        C531   1.410       .  A
C530       Br542   1.934       .  S
C531        C532   1.407       .  A
C531       Br546   1.930       .  S
C532        C535   1.490       .  S
C532        C533   1.408       .  A
C533        C534   1.410       .  A
C533       Br541   1.930       .  S
C534       Br545   1.932       .  S
C535        C536   1.413       .  A
C535        C540   1.406       .  A
C536        C537   1.418       .  A
C536       Br547   1.926       .  S
C537        C538   1.412       .  A
C537       Br543   1.926       .  S
C538        C539   1.417       .  A
C539        C540   1.401       .  A
C539       Br548   1.932   1_455  S
C540       Br544   1.937       .  S
C549        C550   1.416       .  A
C549        C554   1.418       .  A
C550        C551   1.413       .  A
C550       Br562   1.928       .  S
C551        C552   1.409       .  A
C551       Br566   1.928       .  S
C552        C555   1.486       .  S
C552        C553   1.407       .  A
C553        C554   1.401       .  A
C553       Br561   1.934       .  S
C554       Br565   1.938       .  S
C555        C556   1.408       .  A
C555        C560   1.407       .  A
C556        C557   1.410       .  A
C556       Br567   1.931       .  S
C557        C558   1.417       .  A
C557       Br563   1.926       .  S
C558        C559   1.413       .  A
C559        C560   1.407       .  A
C559       Br568   1.926       .  S
C560       Br564   1.929       .  S
C569        C570   1.410       .  A
C569        C574   1.412       .  A
C570        C571   1.413       .  A
C570       Br582   1.928       .  S
C571        C572   1.412       .  A
C571       Br586   1.929       .  S
C572        C575   1.495       .  S
C572        C573   1.411       .  A
C573        C574   1.411       .  A
C573       Br581   1.929       .  S
C574       Br585   1.931       .  S
C575        C576   1.411       .  A
C575        C580   1.410       .  A
C576        C577   1.413       .  A
C576       Br587   1.930       .  S
C577        C578   1.413       .  A
C577       Br583   1.929       .  S
C578        C579   1.412       .  A
C579        C580   1.411       .  A
C579       Br588   1.930       .  S
C580       Br584   1.929       .  S
C589        C590   1.414       .  A
C589        C594   1.418       .  A
C590        C591   1.411       .  A
C590       Br602   1.930       .  S
C591        C592   1.408       .  A
C591       Br606   1.927       .  S
C592        C595   1.481       .  S
C592        C593   1.407       .  A
C593        C594   1.402       .  A
C593       Br601   1.936       .  S
C594       Br605   1.936       .  S
C595        C596   1.407       .  A
C595        C600   1.406       .  A
C596        C597   1.408       .  A
C596       Br607   1.931       .  S
C597        C598   1.414       .  A
C597       Br603   1.923       .  S
C598        C599   1.416       .  A
C599        C600   1.405       .  A
C599       Br608   1.932       .  S
C600       Br604   1.930       .  S
C609        C610   1.416       .  A
C609        C614   1.416       .  A
C610        C611   1.408       .  A
C610       Br622   1.932       .  S
C611        C612   1.407       .  A
C611       Br626   1.929       .  S
C612        C615   1.490       .  S
C612        C613   1.409       .  A
C613        C614   1.412       .  A
C613       Br621   1.930       .  S
C614       Br625   1.925       .  S
C615        C616   1.408       .  A
C615        C620   1.408       .  A
C616        C617   1.413       .  A
C616       Br627   1.928       .  S
C617        C618   1.417       .  A
C617       Br623   1.931       .  S
C618        C619   1.420       .  A
C619        C620   1.408       .  A
C619       Br628   1.937       .  S
C620       Br624   1.935       .  S
C629        C630   1.411       .  A
C629        C634   1.410       .  A
C630        C631   1.407       .  A
C630       Br642   1.932       .  S
C631        C632   1.411       .  A
C631       Br646   1.931       .  S
C632        C635   1.481       .  S
C632        C633   1.408       .  A
C633        C634   1.404       .  A
C633       Br641   1.929       .  S
C634       Br645   1.931       .  S
C635        C636   1.408       .  A
C635        C640   1.407       .  A
C636        C637   1.411       .  A
C636       Br647   1.929       .  S
C637        C638   1.415       .  A
C637       Br643   1.926       .  S
C638        C639   1.418       .  A
C639        C640   1.400       .  A
C639       Br648   1.938       .  S
C640       Br644   1.936       .  S
C649        C650   1.423       .  A
C649        C654   1.421       .  A
C650        C651   1.407       .  A
C650       Br662   1.932       .  S
C651        C652   1.406       .  A
C651       Br666   1.933       .  S
C652        C655   1.487       .  S
C652        C653   1.407       .  A
C653        C654   1.408       .  A
C653       Br661   1.932       .  S
C654       Br665   1.934       .  S
C655        C656   1.413       .  A
C655        C660   1.411       .  A
C656        C657   1.411       .  A
C656       Br667   1.928       .  S
C657        C658   1.407       .  A
C657       Br663   1.924       .  S
C658        C659   1.406       .  A
C659        C660   1.402       .  A
C659       Br668   1.924       .  S
C660       Br664   1.934       .  S
C669        C670   1.413       .  A
C669        C674   1.417       .  A
C670        C671   1.419   1_545  A
C670       Br682   1.926       .  S
C671        C672   1.414       .  A
C671       Br686   1.926       .  S
C672        C675   1.495       .  S
C672        C673   1.407       .  A
C673        C674   1.403   1_565  A
C673       Br681   1.935       .  S
C674       Br685   1.933       .  S
C675        C676   1.410       .  A
C675        C680   1.410       .  A
C676        C677   1.412       .  A
C676       Br687   1.930       .  S
C677        C678   1.418   1_455  A
C677       Br683   1.932   1_455  S
C678        C679   1.413   1_655  A
C679        C680   1.411       .  A
C679       Br688   1.930       .  S
C680       Br684   1.929       .  S
C689        C690   1.420       .  A
C689        C694   1.411       .  A
C690        C691   1.411       .  A
C690       Br702   1.933       .  S
C691        C692   1.407       .  A
C691       Br706   1.930       .  S
C692        C695   1.488       .  S
C692        C693   1.409       .  A
C693        C694   1.408       .  A
C693       Br701   1.930       .  S
C694       Br705   1.927       .  S
C695        C696   1.411       .  A
C695        C700   1.406       .  A
C696        C697   1.416       .  A
C696       Br707   1.926       .  S
C697        C698   1.414       .  A
C697       Br703   1.924       .  S
C698        C699   1.417       .  A
C699        C700   1.403       .  A
C699       Br708   1.932       .  S
C700       Br704   1.936       .  S
C709        C710   1.415       .  A
C709        C714   1.421       .  A
C710        C711   1.407   1_545  A
C710       Br722   1.931       .  S
C711        C712   1.407       .  A
C711       Br726   1.930       .  S
C712        C715   1.484       .  S
C712        C713   1.407       .  A
C713        C714   1.409   1_565  A
C713       Br721   1.932       .  S
C714       Br725   1.935       .  S
C715        C716   1.404       .  A
C715        C720   1.410       .  A
C716        C717   1.401       .  A
C716       Br727   1.936       .  S
C717        C718   1.420       .  A
C717       Br723   1.936       .  S
C718        C719   1.414       .  A
C719        C720   1.414       .  A
C719       Br728   1.928       .  S
C720       Br724   1.927       .  S
C729        C730   1.416       .  A
C729        C734   1.413       .  A
C730        C731   1.409       .  A
C730       Br742   1.932       .  S
C731        C732   1.408       .  A
C731       Br746   1.931       .  S
C732        C735   1.481       .  S
C732        C733   1.407       .  A
C733        C734   1.404       .  A
C733       Br741   1.931       .  S
C734       Br745   1.933       .  S
C735        C736   1.409       .  A
C735        C740   1.408       .  A
C736        C737   1.409       .  A
C736       Br747   1.928       .  S
C737        C738   1.413       .  A
C737       Br743   1.930       .  S
C738        C739   1.412       .  A
C739        C740   1.401       .  A
C739       Br748   1.933       .  S
C740       Br744   1.932       .  S
C749        C750   1.415       .  A
C749        C754   1.414       .  A
C750        C751   1.410       .  A
C750       Br762   1.926       .  S
C751        C752   1.408       .  A
C751       Br766   1.931       .  S
C752        C755   1.489       .  S
C752        C753   1.409       .  A
C753        C754   1.410       .  A
C753       Br761   1.931       .  S
C754       Br765   1.930       .  S
C755        C756   1.410       .  A
C755        C760   1.411       .  A
C756        C757   1.409       .  A
C756       Br767   1.929       .  S
C757        C758   1.412       .  A
C757       Br763   1.932       .  S
C758        C759   1.408       .  A
C759        C760   1.409       .  A
C759       Br768   1.928       .  S
C760       Br764   1.929       .  S
C769        C770   1.411       .  A
C769        C774   1.416   1_545  A
C770        C771   1.415       .  A
C770       Br782   1.926       .  S
C771        C772   1.412       .  A
C771       Br786   1.927       .  S
C772        C775   1.491   1_554  S
C772        C773   1.406   1_545  A
C773        C774   1.406       .  A
C773       Br781   1.932       .  S
C774       Br785   1.933       .  S
C775        C776   1.407       .  A
C775        C780   1.412   1_545  A
C776        C777   1.408       .  A
C776       Br787   1.930       .  S
C777        C778   1.413       .  A
C777       Br783   1.931       .  S
C778        C779   1.410   1_545  A
C779        C780   1.413       .  A
C779       Br788   1.924       .  S
C780       Br784   1.928       .  S
C789        C790   1.430       .  A
C789        C794   1.426   1_565  A
C790        C791   1.411       .  A
C790       Br802   1.928       .  S
C791        C792   1.403       .  A
C791       Br806   1.937       .  S
C792        C795   1.492       .  S
C792        C793   1.406       .  A
C793        C794   1.413   1_565  A
C793       Br801   1.932   1_565  S
C794       Br805   1.935       .  S
C795        C796   1.406       .  A
C795        C800   1.403       .  A
C796        C797   1.415       .  A
C796       Br807   1.931       .  S
C797        C798   1.426       .  A
C797       Br803   1.934       .  S
C798        C799   1.428       .  A
C799        C800   1.410       .  A
C799       Br808   1.928       .  S
C800       Br804   1.937       .  S
C809        C810   1.419       .  A
C809        C814   1.412       .  A
C810        C811   1.404       .  A
C810       Br822   1.929       .  S
C811        C812   1.405       .  A
C811       Br826   1.936       .  S
C812        C815   1.492   1_556  S
C812        C813   1.414       .  A
C813        C814   1.417       .  A
C813       Br821   1.927       .  S
C814       Br825   1.928       .  S
C815        C816   1.413       .  A
C815        C820   1.411       .  A
C816        C817   1.412       .  A
C816       Br827   1.927       .  S
C817        C818   1.408       .  A
C817       Br823   1.928       .  S
C818        C819   1.408       .  A
C819        C820   1.407       .  A
C819       Br828   1.931       .  S
C820       Br824   1.931       .  S
C829        C830   1.413       .  A
C829        C834   1.413       .  A
C830        C831   1.406       .  A
C830       Br842   1.928       .  S
C831        C832   1.409       .  A
C831       Br846   1.933       .  S
C832        C835   1.481       .  S
C832        C833   1.408       .  A
C833        C834   1.406       .  A
C833       Br841   1.929       .  S
C834       Br845   1.931       .  S
C835        C836   1.410       .  A
C835        C840   1.407       .  A
C836        C837   1.412       .  A
C836       Br847   1.927       .  S
C837        C838   1.411       .  A
C837       Br843   1.929       .  S
C838        C839   1.416       .  A
C839        C840   1.399       .  A
C839       Br848   1.935       .  S
C840       Br844   1.937       .  S
C849        C850   1.418       .  A
C849        C854   1.413       .  A
C850        C851   1.408       .  A
C850       Br862   1.934       .  S
C851        C852   1.408       .  A
C851       Br866   1.932       .  S
C852        C855   1.487       .  S
C852        C853   1.409       .  A
C853        C854   1.410       .  A
C853       Br861   1.929       .  S
C854       Br865   1.929       .  S
C855        C856   1.411       .  A
C855        C860   1.405       .  A
C856        C857   1.414       .  A
C856       Br867   1.927       .  S
C857        C858   1.413       .  A
C857       Br863   1.928       .  S
C858        C859   1.422       .  A
C859        C860   1.403       .  A
C859       Br868   1.937       .  S
C860       Br864   1.936       .  S
C869        C870   1.411       .  A
C869        C874   1.416       .  A
C870        C871   1.406   1_455  A
C870       Br882   1.934       .  S
C871        C872   1.410       .  A
C871       Br886   1.926       .  S
C872        C875   1.492       .  S
C872        C873   1.409       .  A
C873        C874   1.413   1_655  A
C873       Br881   1.928       .  S
C874       Br885   1.930       .  S
C875        C876   1.409       .  A
C875        C880   1.408       .  A
C876        C877   1.412       .  A
C876       Br887   1.930       .  S
C877        C878   1.417       .  A
C877       Br883   1.930       .  S
C878        C879   1.414       .  A
C879        C880   1.409       .  A
C879       Br888   1.931       .  S
C880       Br884   1.929       .  S
C889        C890   1.415       .  A
C889        C894   1.416       .  A
C890        C891   1.408       .  A
C890       Br902   1.921       .  S
C891        C892   1.406       .  A
C891       Br906   1.932       .  S
C892        C895   1.482       .  S
C892        C893   1.406       .  A
C893        C894   1.407       .  A
C893       Br901   1.930       .  S
C894       Br905   1.932       .  S
C895        C896   1.410       .  A
C895        C900   1.406       .  A
C896        C897   1.412       .  A
C896       Br907   1.927       .  S
C897        C898   1.412       .  A
C897       Br903   1.928       .  S
C898        C899   1.414       .  A
C899        C900   1.400       .  A
C899       Br908   1.934       .  S
C900       Br904   1.935       .  S
C909        C910   1.424       .  A
C909        C914   1.423       .  A
C910        C911   1.413       .  A
C910       Br922   1.925       .  S
C911        C912   1.406       .  A
C911       Br926   1.933       .  S
C912        C915   1.497       .  S
C912        C913   1.407       .  A
C913        C914   1.414       .  A
C913       Br921   1.931       .  S
C914       Br925   1.934       .  S
C915        C916   1.406       .  A
C915        C920   1.403       .  A
C916        C917   1.417       .  A
C916       Br927   1.931       .  S
C917        C918   1.429       .  A
C917       Br923   1.934       .  S
C918        C919   1.430       .  A
C919        C920   1.412       .  A
C919       Br928   1.926       .  S
C920       Br924   1.938       .  S
C929        C930   1.415       .  A
C929        C934   1.414       .  A
C930        C931   1.411       .  A
C930       Br942   1.930       .  S
C931        C932   1.409       .  A
C931       Br946   1.928       .  S
C932        C935   1.485       .  S
C932        C933   1.408       .  A
C933        C934   1.404       .  A
C933       Br941   1.933       .  S
C934       Br945   1.933       .  S
C935        C936   1.409       .  A
C935        C940   1.408       .  A
C936        C937   1.407       .  A
C936       Br947   1.929       .  S
C937        C938   1.411   1_545  A
C937       Br943   1.931       .  S
C938        C939   1.415   1_565  A
C939        C940   1.408       .  A
C939       Br948   1.932   1_545  S
C940       Br944   1.931       .  S
C949        C950   1.417       .  A
C949        C954   1.415       .  A
C950        C951   1.408       .  A
C950       Br962   1.930       .  S
C951        C952   1.407       .  A
C951       Br966   1.931       .  S
C952        C955   1.481       .  S
C952        C953   1.406       .  A
C953        C954   1.404       .  A
C953       Br961   1.930       .  S
C954       Br965   1.934       .  S
C955        C956   1.408       .  A
C955        C960   1.407       .  A
C956        C957   1.411       .  A
C956       Br967   1.928       .  S
C957        C958   1.413       .  A
C957       Br963   1.924       .  S
C958        C959   1.415       .  A
C959        C960   1.401       .  A
C959       Br968   1.933       .  S
C960       Br964   1.935       .  S
C969        C970   1.415   1_565  A
C969        C974   1.416       .  A
C970        C971   1.413       .  A
C970       Br982   1.929   1_545  S
C971        C972   1.409       .  A
C971       Br986   1.928       .  S
C972        C975   1.490       .  S
C972        C973   1.408       .  A
C973        C974   1.406   1_545  A
C973       Br981   1.931       .  S
C974       Br985   1.931       .  S
C975        C976   1.408       .  A
C975        C980   1.408       .  A
C976        C977   1.408       .  A
C976       Br987   1.930       .  S
C977        C978   1.412   1_655  A
C977       Br983   1.924       .  S
C978        C979   1.419       .  A
C979        C980   1.412   1_455  A
C979       Br988   1.931       .  S
C980       Br984   1.930       .  S
C989        C990   1.415       .  A
C989        C994   1.415       .  A
C990        C991   1.401       .  A
C990      Br1002   1.937       .  S
C991        C992   1.407       .  A
C991      Br1006   1.933       .  S
C992        C995   1.482       .  S
C992        C993   1.408       .  A
C993        C994   1.411       .  A
C993      Br1001   1.927       .  S
C994      Br1005   1.931       .  S
C995        C996   1.407       .  A
C995       C1000   1.409       .  A
C996        C997   1.404       .  A
C996      Br1007   1.929       .  S
C997        C998   1.412       .  A
C997      Br1003   1.929       .  S
C998        C999   1.414       .  A
C999       C1000   1.409       .  A
C999      Br1008   1.931       .  S
C1000     Br1004   1.930       .  S
C1009      C1010   1.410       .  A
C1009      C1014   1.414   1_455  A
C1010      C1011   1.413       .  A
C1010     Br1022   1.925       .  S
C1011      C1012   1.412       .  A
C1011     Br1026   1.928       .  S
C1012      C1015   1.486   1_556  S
C1012      C1013   1.406   1_455  A
C1013      C1014   1.403       .  A
C1013     Br1021   1.933       .  S
C1014     Br1025   1.930       .  S
C1015      C1016   1.408       .  A
C1015      C1020   1.412   1_455  A
C1016      C1017   1.404       .  A
C1016     Br1027   1.932       .  S
C1017      C1018   1.411   1_455  A
C1017     Br1023   1.932       .  S
C1018      C1019   1.407       .  A
C1019      C1020   1.412       .  A
C1019     Br1028   1.928       .  S
C1020     Br1024   1.927       .  S
C1029      C1030   1.412       .  A
C1029      C1034   1.417       .  A
C1030      C1031   1.411       .  A
C1030     Br1042   1.928       .  S
C1031      C1032   1.410       .  A
C1031     Br1046   1.927       .  S
C1032      C1035   1.480       .  S
C1032      C1033   1.406       .  A
C1033      C1034   1.399       .  A
C1033     Br1041   1.937       .  S
C1034     Br1045   1.935       .  S
C1035      C1036   1.409       .  A
C1035      C1040   1.407       .  A
C1036      C1037   1.406       .  A
C1036     Br1047   1.931       .  S
C1037      C1038   1.413       .  A
C1037     Br1043   1.931       .  S
C1038      C1039   1.412       .  A
C1039      C1040   1.405       .  A
C1039     Br1048   1.932       .  S
C1040     Br1044   1.931       .  S
C1049      C1050   1.415       .  A
C1049      C1054   1.410       .  A
C1050      C1051   1.406       .  A
C1050     Br1062   1.933       .  S
C1051      C1052   1.408       .  A
C1051     Br1066   1.932       .  S
C1052      C1055   1.481       .  S
C1052      C1053   1.409       .  A
C1053      C1054   1.408       .  A
C1053     Br1061   1.929       .  S
C1054     Br1065   1.929       .  S
C1055      C1056   1.410       .  A
C1055      C1060   1.404       .  A
C1056      C1057   1.414       .  A
C1056     Br1067   1.927       .  S
C1057      C1058   1.413       .  A
C1057     Br1063   1.928       .  S
C1058      C1059   1.420       .  A
C1059      C1060   1.399       .  A
C1059     Br1068   1.937       .  S
C1060     Br1064   1.938       .  S
C1069      C1070   1.416       .  A
C1069      C1074   1.414       .  A
C1070      C1071   1.401       .  A
C1070     Br1082   1.937       .  S
C1071      C1072   1.407       .  A
C1071     Br1086   1.935       .  S
C1072      C1075   1.480       .  S
C1072      C1073   1.408       .  A
C1073      C1074   1.411       .  A
C1073     Br1081   1.928       .  S
C1074     Br1085   1.930       .  S
C1075      C1076   1.407       .  A
C1075      C1080   1.408       .  A
C1076      C1077   1.405       .  A
C1076     Br1087   1.930       .  S
C1077      C1078   1.413       .  A
C1077     Br1083   1.932       .  S
C1078      C1079   1.414       .  A
C1079      C1080   1.407       .  A
C1079     Br1088   1.932       .  S
C1080     Br1084   1.930       .  S
C1089      C1090   1.417       .  A
C1089      C1094   1.425       .  A
C1090      C1091   1.414       .  A
C1090     Br1102   1.929       .  S
C1091      C1092   1.409       .  A
C1091     Br1106   1.928       .  S
C1092      C1095   1.485       .  S
C1092      C1093   1.404       .  A
C1093      C1094   1.403       .  A
C1093     Br1101   1.938       .  S
C1094     Br1105   1.940       .  S
C1095      C1096   1.408       .  A
C1095      C1100   1.408       .  A
C1096      C1097   1.407       .  A
C1096     Br1107   1.932       .  S
C1097      C1098   1.417       .  A
C1097     Br1103   1.933       .  S
C1098      C1099   1.413       .  A
C1099      C1100   1.408       .  A
C1099     Br1108   1.930       .  S
C1100     Br1104   1.929       .  S
C1109      C1110   1.410       .  A
C1109      C1114   1.411       .  A
C1110      C1111   1.408       .  A
C1110     Br1122   1.925       .  S
C1111      C1112   1.409       .  A
C1111     Br1126   1.930       .  S
C1112      C1115   1.491       .  S
C1112      C1113   1.411       .  A
C1113      C1114   1.412       .  A
C1113     Br1121   1.929       .  S
C1114     Br1125   1.928       .  S
C1115      C1116   1.409       .  A
C1115      C1120   1.411       .  A
C1116      C1117   1.409       .  A
C1116     Br1127   1.929       .  S
C1117      C1118   1.413       .  A
C1117     Br1123   1.931       .  S
C1118      C1119   1.410       .  A
C1119      C1120   1.411       .  A
C1119     Br1128   1.928       .  S
C1120     Br1124   1.929       .  S
C1129      C1130   1.408       .  A
C1129      C1134   1.411       .  A
C1130      C1131   1.411       .  A
C1130     Br1142   1.928       .  S
C1131      C1132   1.412       .  A
C1131     Br1146   1.927       .  S
C1132      C1135   1.487       .  S
C1132      C1133   1.408       .  A
C1133      C1134   1.405       .  A
C1133     Br1141   1.930       .  S
C1134     Br1145   1.933       .  S
C1135      C1136   1.407       .  A
C1135      C1140   1.412       .  A
C1136      C1137   1.407       .  A
C1136     Br1147   1.932       .  S
C1137      C1138   1.415       .  A
C1137     Br1143   1.930       .  S
C1138      C1139   1.407       .  A
C1139      C1140   1.411       .  A
C1139     Br1148   1.926       .  S
C1140     Br1144   1.928       .  S
C1149      C1150   1.413       .  A
C1149      C1154   1.411       .  A
C1150      C1151   1.408       .  A
C1150     Br1162   1.932       .  S
C1151      C1152   1.408       .  A
C1151     Br1166   1.931       .  S
C1152      C1155   1.496       .  S
C1152      C1153   1.413       .  A
C1153      C1154   1.416       .  A
C1153     Br1161   1.927       .  S
C1154     Br1165   1.926       .  S
C1155      C1156   1.413       .  A
C1155      C1160   1.407       .  A
C1156      C1157   1.416       .  A
C1156     Br1167   1.927       .  S
C1157      C1158   1.410       .  A
C1157     Br1163   1.926       .  S
C1158      C1159   1.416       .  A
C1159      C1160   1.408       .  A
C1159     Br1168   1.932       .  S
C1160     Br1164   1.931       .  S
C1169      C1170   1.410       .  A
C1169      C1174   1.411       .  A
C1170      C1171   1.413       .  A
C1170     Br1182   1.927       .  S
C1171      C1172   1.412       .  A
C1171     Br1186   1.928       .  S
C1172      C1175   1.497       .  S
C1172      C1173   1.411       .  A
C1173      C1174   1.412       .  A
C1173     Br1181   1.929       .  S
C1174     Br1185   1.930       .  S
C1175      C1176   1.411       .  A
C1175      C1180   1.410       .  A
C1176      C1177   1.413       .  A
C1176     Br1187   1.929       .  S
C1177      C1178   1.412       .  A
C1177     Br1183   1.929       .  S
C1178      C1179   1.414       .  A
C1179      C1180   1.412       .  A
C1179     Br1188   1.932       .  S
C1180     Br1184   1.929       .  S
C1189      C1190   1.416       .  A
C1189      C1194   1.417       .  A
C1190      C1191   1.413       .  A
C1190     Br1202   1.930       .  S
C1191      C1192   1.411       .  A
C1191     Br1206   1.930       .  S
C1192      C1195   1.497       .  S
C1192      C1193   1.409       .  A
C1193      C1194   1.410       .  A
C1193     Br1201   1.932       .  S
C1194     Br1205   1.928       .  S
C1195      C1196   1.412       .  A
C1195      C1200   1.408       .  A
C1196      C1197   1.414       .  A
C1196     Br1207   1.929       .  S
C1197      C1198   1.415       .  A
C1197     Br1203   1.930       .  S
C1198      C1199   1.416       .  A
C1199      C1200   1.409       .  A
C1199     Br1208   1.927       .  S
C1200     Br1204   1.932       .  S
C1209      C1210   1.417       .  A
C1209      C1214   1.416   1_545  A
C1210      C1211   1.398   1_545  A
C1210     Br1222   1.937       .  S
C1211      C1212   1.405       .  A
C1211     Br1226   1.936       .  S
C1212      C1215   1.481       .  S
C1212      C1213   1.409       .  A
C1213      C1214   1.414       .  A
C1213     Br1221   1.928       .  S
C1214     Br1225   1.928       .  S
C1215      C1216   1.407       .  A
C1215      C1220   1.407       .  A
C1216      C1217   1.407       .  A
C1216     Br1227   1.930       .  S
C1217      C1218   1.414   1_455  A
C1217     Br1223   1.931   1_455  S
C1218      C1219   1.416       .  A
C1219      C1220   1.406   1_655  A
C1219     Br1228   1.934       .  S
C1220     Br1224   1.931       .  S
C1229      C1230   1.419       .  A
C1229      C1234   1.414       .  A
C1230      C1231   1.406       .  A
C1230     Br1242   1.934       .  S
C1231      C1232   1.406       .  A
C1231     Br1246   1.933       .  S
C1232      C1235   1.482       .  S
C1232      C1233   1.408       .  A
C1233      C1234   1.408       .  A
C1233     Br1241   1.929       .  S
C1234     Br1245   1.931       .  S
C1235      C1236   1.410       .  A
C1235      C1240   1.406       .  A
C1236      C1237   1.412       .  A
C1236     Br1247   1.926       .  S
C1237      C1238   1.411       .  A
C1237     Br1243   1.927       .  S
C1238      C1239   1.415       .  A
C1239      C1240   1.400       .  A
C1239     Br1248   1.934       .  S
C1240     Br1244   1.935       .  S
C1249      C1250   1.412       .  A
C1249      C1254   1.410       .  A
C1250      C1251   1.403       .  A
C1250     Br1262   1.933       .  S
C1251      C1252   1.406       .  A
C1251     Br1266   1.931       .  S
C1252      C1255   1.482       .  S
C1252      C1253   1.411       .  A
C1253      C1254   1.411       .  A
C1253     Br1261   1.928       .  S
C1254     Br1265   1.927       .  S
C1255      C1256   1.411       .  A
C1255      C1260   1.406       .  A
C1256      C1257   1.411       .  A
C1256     Br1267   1.927       .  S
C1257      C1258   1.410       .  A
C1257     Br1263   1.928       .  S
C1258      C1259   1.413       .  A
C1259      C1260   1.402       .  A
C1259     Br1268   1.933       .  S
C1260     Br1264   1.933       .  S
C1269      C1270   1.410       .  A
C1269      C1274   1.415       .  A
C1270      C1271   1.405       .  A
C1270     Br1282   1.930       .  S
C1271      C1272   1.407       .  A
C1271     Br1286   1.929       .  S
C1272      C1275   1.479       .  S
C1272      C1273   1.407       .  A
C1273      C1274   1.406       .  A
C1273     Br1281   1.930       .  S
C1274     Br1285   1.933       .  S
C1275      C1276   1.406       .  A
C1275      C1280   1.407       .  A
C1276      C1277   1.410   1_655  A
C1276     Br1287   1.929       .  S
C1277      C1278   1.416       .  A
C1277     Br1283   1.928       .  S
C1278      C1279   1.415       .  A
C1279      C1280   1.401   1_455  A
C1279     Br1288   1.937       .  S
C1280     Br1284   1.931       .  S
C1289      C1290   1.413       .  A
C1289      C1294   1.418       .  A
C1290      C1291   1.417       .  A
C1290     Br1302   1.926       .  S
C1291      C1292   1.412       .  A
C1291     Br1306   1.926       .  S
C1292      C1295   1.493       .  S
C1292      C1293   1.407       .  A
C1293      C1294   1.405       .  A
C1293     Br1301   1.936       .  S
C1294     Br1305   1.933       .  S
C1295      C1296   1.408       .  A
C1295      C1300   1.408       .  A
C1296      C1297   1.411       .  A
C1296     Br1307   1.930       .  S
C1297      C1298   1.419       .  A
C1297     Br1303   1.932       .  S
C1298      C1299   1.420       .  A
C1299      C1300   1.411       .  A
C1299     Br1308   1.934       .  S
C1300     Br1304   1.931       .  S
C1309      C1310   1.411       .  A
C1309      C1314   1.411       .  A
C1310      C1311   1.408       .  A
C1310     Br1322   1.931       .  S
C1311      C1312   1.409       .  A
C1311     Br1326   1.930   1_545  S
C1312      C1315   1.488   1_545  S
C1312      C1313   1.410       .  A
C1313      C1314   1.410       .  A
C1313     Br1321   1.930       .  S
C1314     Br1325   1.929       .  S
C1315      C1316   1.410   1_565  A
C1315      C1320   1.411       .  A
C1316      C1317   1.408   1_545  A
C1316     Br1327   1.929       .  S
C1317      C1318   1.410       .  A
C1317     Br1323   1.931       .  S
C1318      C1319   1.408       .  A
C1319      C1320   1.409       .  A
C1319     Br1328   1.929       .  S
C1320     Br1324   1.929       .  S
C1329      C1330   1.417       .  A
C1329      C1334   1.410       .  A
C1330      C1331   1.403       .  A
C1330     Br1342   1.936       .  S
C1331      C1332   1.406       .  A
C1331     Br1346   1.933       .  S
C1332      C1335   1.490       .  S
C1332      C1333   1.414       .  A
C1333      C1334   1.414       .  A
C1333     Br1341   1.929       .  S
C1334     Br1345   1.928       .  S
C1335      C1336   1.410       .  A
C1335      C1340   1.411       .  A
C1336      C1337   1.407       .  A
C1336     Br1347   1.931       .  S
C1337      C1338   1.411       .  A
C1337     Br1343   1.929       .  S
C1338      C1339   1.412       .  A
C1339      C1340   1.409       .  A
C1339     Br1348   1.931       .  S
C1340     Br1344   1.930       .  S
C1349      C1350   1.418       .  A
C1349      C1354   1.417       .  A
C1350      C1351   1.407       .  A
C1350     Br1362   1.935       .  S
C1351      C1352   1.408       .  A
C1351     Br1366   1.933       .  S
C1352      C1355   1.493       .  S
C1352      C1353   1.410       .  A
C1353      C1354   1.415       .  A
C1353     Br1361   1.928       .  S
C1354     Br1365   1.929       .  S
C1355      C1356   1.409       .  A
C1355      C1360   1.410       .  A
C1356      C1357   1.411       .  A
C1356     Br1367   1.930       .  S
C1357      C1358   1.415       .  A
C1357     Br1363   1.930   1_545  S
C1358      C1359   1.411       .  A
C1359      C1360   1.411       .  A
C1359     Br1368   1.928       .  S
C1360     Br1364   1.928       .  S
C1369      C1370   1.416       .  A
C1369      C1374   1.422       .  A
C1370      C1371   1.417       .  A
C1370     Br1382   1.928       .  S
C1371      C1372   1.410       .  A
C1371     Br1386   1.927       .  S
C1372      C1375   1.492       .  S
C1372      C1373   1.406       .  A
C1373      C1374   1.405       .  A
C1373     Br1381   1.935       .  S
C1374     Br1385   1.938       .  S
C1375      C1376   1.408       .  A
C1375      C1380   1.409       .  A
C1376      C1377   1.411       .  A
C1376     Br1387   1.930       .  S
C1377      C1378   1.420       .  A
C1377     Br1383   1.933       .  S
C1378      C1379   1.416       .  A
C1379      C1380   1.411       .  A
C1379     Br1388   1.931       .  S
C1380     Br1384   1.930       .  S
C1389      C1390   1.426       .  A
C1389      C1394   1.427       .  A
C1390      C1391   1.419       .  A
C1390     Br1402   1.932       .  S
C1391      C1392   1.411       .  A
C1391     Br1406   1.931       .  S
C1392      C1395   1.503       .  S
C1392      C1393   1.408       .  A
C1393      C1394   1.410       .  A
C1393     Br1401   1.935       .  S
C1394     Br1405   1.939       .  S
C1395      C1396   1.414       .  A
C1395      C1400   1.415       .  A
C1396      C1397   1.411       .  A
C1396     Br1407   1.931       .  S
C1397      C1398   1.410       .  A
C1397     Br1403   1.929       .  S
C1398      C1399   1.409       .  A
C1399      C1400   1.414       .  A
C1399     Br1408   1.927       .  S
C1400     Br1404   1.929       .  S
C1409      C1410   1.412       .  A
C1409      C1414   1.410       .  A
C1410      C1411   1.410       .  A
C1410     Br1422   1.930   1_655  S
C1411      C1412   1.410       .  A
C1411     Br1426   1.928       .  S
C1412      C1415   1.490       .  S
C1412      C1413   1.410       .  A
C1413      C1414   1.407       .  A
C1413     Br1421   1.930       .  S
C1414     Br1425   1.931       .  S
C1415      C1416   1.408       .  A
C1415      C1420   1.410       .  A
C1416      C1417   1.406   1_545  A
C1416     Br1427   1.935       .  S
C1417      C1418   1.415       .  A
C1417     Br1423   1.930       .  S
C1418      C1419   1.413       .  A
C1419      C1420   1.415   1_565  A
C1419     Br1428   1.926       .  S
C1420     Br1424   1.928       .  S
C1429      C1430   1.425       .  A
C1429      C1434   1.419       .  A
C1430      C1431   1.409       .  A
C1430     Br1442   1.929       .  S
C1431      C1432   1.404       .  A
C1431     Br1446   1.934       .  S
C1432      C1435   1.495       .  S
C1432      C1433   1.411       .  A
C1433      C1434   1.416       .  A
C1433     Br1441   1.930       .  S
C1434     Br1445   1.929       .  S
C1435      C1436   1.408       .  A
C1435      C1440   1.411       .  A
C1436      C1437   1.410       .  A
C1436     Br1447   1.931       .  S
C1437      C1438   1.415       .  A
C1437     Br1443   1.926       .  S
C1438      C1439   1.413       .  A
C1439      C1440   1.413       .  A
C1439     Br1448   1.929       .  S
C1440     Br1444   1.928       .  S
C1449      C1450   1.419       .  A
C1449      C1454   1.416       .  A
C1450      C1451   1.411       .  A
C1450     Br1462   1.932       .  S
C1451      C1452   1.408       .  A
C1451     Br1466   1.932       .  S
C1452      C1455   1.489       .  S
C1452      C1453   1.407       .  A
C1453      C1454   1.410       .  A
C1453     Br1461   1.930       .  S
C1454     Br1465   1.931       .  S
C1455      C1456   1.411       .  A
C1455      C1460   1.407       .  A
C1456      C1457   1.414       .  A
C1456     Br1467   1.926       .  S
C1457      C1458   1.412       .  A
C1457     Br1463   1.928       .  S
C1458      C1459   1.417       .  A
C1459      C1460   1.403       .  A
C1459     Br1468   1.937       .  S
C1460     Br1464   1.934       .  S
C1469      C1470   1.412       .  A
C1469      C1474   1.406       .  A
C1470      C1471   1.406   1_545  A
C1470     Br1482   1.931       .  S
C1471      C1472   1.409       .  A
C1471     Br1486   1.930       .  S
C1472      C1475   1.473       .  S
C1472      C1473   1.406       .  A
C1473      C1474   1.400   1_565  A
C1473     Br1481   1.931       .  S
C1474     Br1485   1.924       .  S
C1475      C1476   1.407       .  A
C1475      C1480   1.405       .  A
C1476      C1477   1.408       .  A
C1476     Br1487   1.928       .  S
C1477      C1478   1.413       .  A
C1477     Br1483   1.929       .  S
C1478      C1479   1.417       .  A
C1479      C1480   1.399       .  A
C1479     Br1488   1.937       .  S
C1480     Br1484   1.936       .  S
C1489      C1490   1.412       .  A
C1489      C1494   1.416       .  A
C1490      C1491   1.417       .  A
C1490     Br1502   1.926       .  S
C1491      C1492   1.413       .  A
C1491     Br1506   1.926       .  S
C1492      C1495   1.492       .  S
C1492      C1493   1.407       .  A
C1493      C1494   1.403       .  A
C1493     Br1501   1.934       .  S
C1494     Br1505   1.934       .  S
C1495      C1496   1.409       .  A
C1495      C1500   1.410       .  A
C1496      C1497   1.410       .  A
C1496     Br1507   1.931       .  S
C1497      C1498   1.416       .  A
C1497     Br1503   1.931       .  S
C1498      C1499   1.413       .  A
C1499      C1500   1.412       .  A
C1499     Br1508   1.929       .  S
C1500     Br1504   1.929       .  S
C1509      C1510   1.410       .  A
C1509      C1514   1.416       .  A
C1510      C1511   1.404       .  A
C1510     Br1522   1.926       .  S
C1511      C1512   1.407       .  A
C1511     Br1526   1.929       .  S
C1512      C1515   1.482       .  S
C1512      C1513   1.408       .  A
C1513      C1514   1.408       .  A
C1513     Br1521   1.930       .  S
C1514     Br1525   1.932       .  S
C1515      C1516   1.406       .  A
C1515      C1520   1.408       .  A
C1516      C1517   1.401       .  A
C1516     Br1527   1.936       .  S
C1517      C1518   1.418       .  A
C1517     Br1523   1.936   1_455  S
C1518      C1519   1.416       .  A
C1519      C1520   1.412       .  A
C1519     Br1528   1.924       .  S
C1520     Br1524   1.929       .  S
C1529      C1530   1.412       .  A
C1529      C1534   1.410       .  A
C1530      C1531   1.409       .  A
C1530     Br1542   1.931       .  S
C1531      C1532   1.409       .  A
C1531     Br1546   1.929   1_655  S
C1532      C1535   1.490   1_655  S
C1532      C1533   1.411       .  A
C1533      C1534   1.411       .  A
C1533     Br1541   1.930       .  S
C1534     Br1545   1.927       .  S
C1535      C1536   1.410       .  A
C1535      C1540   1.411       .  A
C1536      C1537   1.409       .  A
C1536     Br1547   1.929   1_455  S
C1537      C1538   1.411       .  A
C1537     Br1543   1.931       .  S
C1538      C1539   1.409       .  A
C1539      C1540   1.410       .  A
C1539     Br1548   1.929       .  S
C1540     Br1544   1.929       .  S
