geometry optimzed in LAMMPS
_audit_creation_date              2020-12-01 
_audit_creation_method            'lammps2cif' 
_symmetry_space_group_name_H-M    'P1' 
_symmetry_Int_Tables_number       1 
_symmetry_cell_setting            triclinic 
loop_ 
_symmetry_equiv_pos_as_xyz 
  x,y,z 
_cell_length_a                    77.69575853 
_cell_length_b                    77.45354081461643 
_cell_length_c                    48.02549831305076 
_cell_angle_alpha                 89.96512542607269 
_cell_angle_beta                  89.92068889560062 
_cell_angle_gamma                 119.91750753518052 
loop_ 
_atom_site_label 
_atom_site_type_symbol 
_atom_site_fract_x 
_atom_site_fract_y 
_atom_site_fract_z 
_atom_site_charge 
Zr1        Zr  0.84465656  0.24908233  0.28811925     2.17500
O2          O  0.84826418  0.22009216  0.29778594    -0.51400
O3          O  0.80971025  0.22956775  0.30010082    -0.74600
O4          O  0.85001526  0.24574110  0.33733037    -0.81400
O5          O  0.84123680  0.23875065  0.21033245    -0.83200
O6          O  0.86261204  0.27606818  0.35824777    -0.78800
O7          O  0.83860421  0.22408699  0.25237165    -0.90400
O8          O  0.79423941  0.24650191  0.28656253    -0.76400
O9          O  0.83431694  0.27075462  0.30782391    -0.85900
O10         O  0.82915247  0.25722666  0.25183325    -0.85600
O11         O  0.87465582  0.27766021  0.30432852    -0.72300
O12         O  0.86960749  0.26457169  0.25257669    -0.84500
Zr13       Zr  0.87455976  0.32441832  0.25137851     2.26400
Zr14       Zr  0.86402165  0.29967098  0.32328923     2.06300
Zr15       Zr  0.85410127  0.27369950  0.21715660     2.10000
Zr16       Zr  0.81953348  0.27930292  0.27094089     1.78800
O17         O  0.87533497  0.26927131  0.18397585    -0.93300
O18         O  0.80333012  0.28676307  0.30873625    -0.41100
O19         O  0.84424168  0.29603976  0.23562502    -0.77700
O20         O  0.84896478  0.30856611  0.28647392    -0.96400
O21         O  0.88900429  0.31547730  0.28828178    -0.89700
O22         O  0.88422296  0.30223333  0.23191439    -0.92500
C23         C  0.79422525  0.23124588  0.29692694     1.01200
C24         C  0.83750250  0.22378476  0.22562110     1.14100
C25         C  0.85735845  0.25746356  0.35827007     1.04900
O26         O  0.83856151  0.29677375  0.35561394    -0.94700
O27         O  0.87236482  0.33445697  0.32966547    -0.90400
O28         O  0.88051344  0.34927772  0.28696329    -0.83600
C29         C  0.87833344  0.34965788  0.31345741     1.11600
O30         O  0.91014794  0.26941403  0.27308093    -0.96700
Zr31       Zr  0.89885691  0.29356023  0.26880406     1.88900
O32         O  0.91095426  0.34577771  0.24834385    -0.73300
O33         O  0.89180452  0.31731490  0.35521871    -0.52600
O34         O  0.92030643  0.29899281  0.30869320    -0.97300
O35         O  0.91975247  0.29636145  0.22909901    -0.54500
O36         O  0.92362324  0.32818871  0.26912554    -0.73800
C37         C  0.92532455  0.34421653  0.25903784     0.98500
O38         O  0.86774579  0.35002802  0.23407925    -0.62700
O39         O  0.82659491  0.26234076  0.18442082    -0.57500
O40         O  0.87189675  0.32848668  0.20096089    -0.94100
O41         O  0.86032692  0.29782829  0.18175684    -0.92600
O42         O  0.79672302  0.26564940  0.23184643    -0.92900
O43         O  0.80473965  0.29936193  0.25765142    -0.91700
C44         C  0.86626577  0.31641254  0.18010375     1.17400
H45         H  0.81779772  0.24546148  0.24444236     0.33300
H46         H  0.84486345  0.31773191  0.29312131     0.44100
H47         H  0.89329887  0.30846077  0.21655160     0.37700
H48         H  0.88131720  0.27393978  0.31797253     0.34200
H49         H  0.78895419  0.27871216  0.30465461     0.25900
H50         H  0.88569068  0.31825283  0.37283881     0.31900
H51         H  0.91757218  0.30732311  0.32154231     0.37800
H52         H  0.80428263  0.27391461  0.21568851     0.32200
H53         H  0.83159863  0.25958338  0.16697740     0.31100
H54         H  0.88506713  0.28287442  0.17759479     0.32800
H55         H  0.92488739  0.30998771  0.22164421     0.31800
H56         H  0.81598629  0.31321970  0.25748986     0.35800
H57         H  0.85843994  0.35057928  0.24767331     0.28500
H58         H  0.83810639  0.21225663  0.31206013     0.32700
H59         H  0.92468103  0.27699796  0.26990939     0.35600
H60         H  0.81632174  0.24906804  0.19119092     0.28200
H61         H  0.88032682  0.36278644  0.23638639     0.41100
H62         H  0.84601834  0.30513509  0.37170034     0.31100
H63         H  0.80518367  0.28025172  0.32528467     0.38700
H64         H  0.91044398  0.28746277  0.21473666     0.30600
H65         H  0.89665850  0.30796363  0.35939308     0.30700
H66         H  0.86118215  0.22528939  0.30738279     0.30900
Zr67       Zr  0.89679659  0.18393446  0.55286640     2.17500
O68         O  0.86486314  0.18113376  0.54148377    -0.51400
O69         O  0.87921174  0.14894651  0.54004356    -0.74600
O70         O  0.89437487  0.19260203  0.50451345    -0.81400
O71         O  0.88577423  0.17934552  0.63122719    -0.83200
O72         O  0.92534042  0.20914290  0.48535279    -0.78800
O73         O  0.87283763  0.18034779  0.58921185    -0.90400
O74         O  0.89728020  0.13452570  0.55274306    -0.76400
O75         O  0.92069366  0.17711825  0.53184375    -0.85900
O76         O  0.90567552  0.16772195  0.58753066    -0.85600
O77         O  0.92410594  0.21602074  0.53988061    -0.72300
O78         O  0.91018889  0.20702563  0.59081887    -0.84500
Zr79       Zr  0.97152209  0.21718874  0.59202946     2.26400
Zr80       Zr  0.94841917  0.20898645  0.51963691     2.06300
Zr81       Zr  0.92026939  0.19117432  0.62446446     2.10000
Zr82       Zr  0.92981483  0.16146477  0.56695172     1.78800
O83         O  0.91460073  0.20886219  0.66205215    -0.93300
O84         O  0.93734405  0.14906817  0.52470341    -0.41100
O85         O  0.94453083  0.18474600  0.60464002    -0.77700
O86         O  0.95773800  0.19301951  0.55465802    -0.96400
O87         O  0.96172930  0.23225506  0.55699968    -0.89700
O88         O  0.94717458  0.22328146  0.61253502    -0.92500
C89         C  0.88163204  0.13383493  0.54273233     1.01200
C90         C  0.87186296  0.17820626  0.61589252     1.14100
C91         C  0.90651222  0.20247462  0.48474705     1.04900
O92         O  0.94871897  0.18932777  0.48022103    -0.94700
O93         O  0.98341502  0.21802744  0.51478645    -0.90400
O94         O  0.99762365  0.22496833  0.55785612    -0.83600
C95         C  0.99833198  0.22349810  0.53127182     1.11600
O96         O  0.91083875  0.24634970  0.57725125    -0.96700
Zr97       Zr  0.93763204  0.23854678  0.57772961     1.88900
O98         O  0.99211303  0.25391019  0.59370735    -0.73300
O99         O  0.96669636  0.24042257  0.49463649    -0.52600
O100        O  0.94086247  0.26119626  0.54014652    -0.97300
O101        O  0.93784910  0.25655947  0.61951201    -0.54500
O102        O  0.97161104  0.26503413  0.57879834    -0.73800
C103        C  0.98872176  0.26780220  0.58554255     0.98500
O104        O  0.99558310  0.20914773  0.61165130    -0.62700
O105        O  0.90849355  0.16006663  0.64990345    -0.57500
O106        O  0.97518602  0.21695948  0.64288700    -0.94100
O107        O  0.94404842  0.19858460  0.66078623    -0.92600
O108        O  0.92142279  0.13564469  0.60194364    -0.92900
O109        O  0.95432818  0.15136990  0.57643492    -0.91700
C110        C  0.96293502  0.20862732  0.66325091     1.17400
H111        H  0.89426202  0.15565772  0.59416620     0.33300
H112        H  0.96754974  0.18991137  0.54774252     0.44100
H113        H  0.95236350  0.23169842  0.62869114     0.37700
H114        H  0.91998281  0.22305409  0.52746913     0.34200
H115        H  0.93146497  0.13457383  0.52791036     0.25900
H116        H  0.96722798  0.23655868  0.47513984     0.31900
H117        H  0.94794982  0.27466410  0.54850671     0.37800
H118        H  0.90697912  0.12973702  0.60514533     0.32200
H119        H  0.92023558  0.15830752  0.65141817     0.31100
H120        H  0.90831551  0.19888038  0.67710435     0.50800
H121        H  0.95108703  0.26153548  0.62801425     0.31800
H122        H  0.96197747  0.15961881  0.59251930     0.35800
H123        H  0.99537030  0.19893913  0.59904016     0.28500
H124        H  0.85952354  0.17181394  0.52555437     0.32700
H125        H  0.91721258  0.26091998  0.58013634     0.35600
H126        H  0.90617009  0.16310221  0.66910281     0.28200
H127        H  0.00872284  0.22114736  0.60859996     0.41100
H128        H  0.96024604  0.18741294  0.48338648     0.31100
H129        H  0.92887850  0.15004858  0.51011948     0.38700
H130        H  0.92846617  0.24613329  0.63245624     0.30600
H131        H  0.95763035  0.24594387  0.49417068     0.30700
H132        H  0.86793724  0.19426340  0.53390243     0.30900
Zr133      Zr  0.92722124  0.42351093  0.88839289     2.17500
O134        O  0.95829534  0.45448926  0.87996246    -0.51400
O135        O  0.91246329  0.44353472  0.87411915    -0.74600
O136        O  0.93970186  0.42651289  0.84091525    -0.81400
O137        O  0.93489155  0.43199457  0.96697757    -0.83200
O138        O  0.92355132  0.39630810  0.81956017    -0.78800
O139        O  0.94765420  0.44647633  0.92509198    -0.90400
O140        O  0.87957264  0.42666505  0.88459423    -0.76400
O141        O  0.89710784  0.40140284  0.86497658    -0.85900
O142        O  0.90116227  0.41571682  0.92108193    -0.85600
O143        O  0.93051749  0.39514218  0.87587702    -0.72300
O144        O  0.93359506  0.40788623  0.92712111    -0.84500
Zr145      Zr  0.88006354  0.34857197  0.92437943     2.26400
Zr146      Zr  0.89978986  0.37273721  0.85312833     2.06300
Zr147      Zr  0.90692167  0.39931105  0.95902073     2.10000
Zr148      Zr  0.87122356  0.39311600  0.89800698     1.78800
O149        O  0.92406647  0.40185510  0.00256021    -0.93300
O150        O  0.85329251  0.38836235  0.85448092    -0.41100
O151        O  0.87644487  0.37672693  0.93688519    -0.77700
O152        O  0.87334237  0.36431612  0.88578058    -0.96400
O153        O  0.90607494  0.35697653  0.89150175    -0.89700
O154        O  0.91009688  0.37105835  0.94732787    -0.92500
C155        C  0.89529980  0.44208950  0.87568201     1.01200
C156        C  0.94756639  0.44634122  0.95186966     1.14100
C157        C  0.93662129  0.41494144  0.82009474     1.04900
O158        O  0.88073463  0.37284653  0.81296980    -0.94700
O159        O  0.87313044  0.33836767  0.84617804    -0.90400
O160        O  0.86344368  0.32342115  0.88874209    -0.83600
C161        C  0.86254179  0.32329949  0.86205178     1.11600
O162        O  0.97127695  0.40328762  0.90970875    -0.96700
Zr163      Zr  0.93599289  0.37929986  0.91475385     1.88900
O164        O  0.89366684  0.32625173  0.93013566    -0.73300
O165        O  0.91451929  0.35553308  0.82911027    -0.52600
O166        O  0.95254578  0.36978368  0.87987913    -0.97300
O167        O  0.95401131  0.38425816  0.95826800    -0.54500
O168        O  0.92724570  0.34545435  0.92638422    -0.73800
C169        C  0.91131096  0.32872091  0.93004953     0.98500
O170        O  0.84569983  0.32562638  0.93801021    -0.62700
O171        O  0.88941647  0.41476753  0.98022850    -0.57500
O172        O  0.87430137  0.34347472  0.97475831    -0.94100
O173        O  0.88720730  0.37449191  0.99332649    -0.92600
O174        O  0.85446282  0.40259894  0.93250123    -0.92900
O175        O  0.83583164  0.36944695  0.90251372    -0.91700
C176        C  0.87768599  0.35548307  0.99524404     1.17400
H177        H  0.90114509  0.42753676  0.92740189     0.33300
H178        H  0.86069184  0.35514249  0.87758170     0.44100
H179        H  0.91212469  0.36508861  0.96371450     0.37700
H180        H  0.94182187  0.39887039  0.86390921     0.34200
H181        H  0.86270307  0.39926029  0.84214836     0.25900
H182        H  0.91007647  0.35449447  0.80955716     0.31900
H183        H  0.94278896  0.35583903  0.87500058     0.37800
H184        H  0.84847218  0.40915357  0.92167674     0.32200
H185        H  0.88576020  0.40886335  0.99909725     0.31100
H186        H  0.91907702  0.40816919  0.01577253     0.32800
H187        H  0.94562582  0.37232858  0.96973959     0.31800
H188        H  0.83494818  0.35639255  0.90565105     0.35800
H189        H  0.84181237  0.33360236  0.94982870     0.28500
H190        H  0.95610459  0.46060969  0.86320956     0.32700
H191        H  0.97830083  0.39605813  0.91499718     0.35600
H192        H  0.89978781  0.42878084  0.98349647     0.28200
H193        H  0.83771567  0.32321917  0.92091661     0.41100
H194        H  0.88415134  0.38691915  0.81079354     0.31100
H195        H  0.85221747  0.37615283  0.84623598     0.38700
H196        H  0.95324341  0.39522238  0.96769498     0.30600
H197        H  0.92893447  0.36523071  0.82851510     0.30700
H198        H  0.96801684  0.45045593  0.87416101     0.30900
Zr199      Zr  0.04883094  0.48545828  0.62057196     2.17500
O200        O  0.01741529  0.48466580  0.62873956    -0.51400
O201        O  0.06491288  0.51981378  0.63637446    -0.74600
O202        O  0.03592249  0.47547097  0.66799342    -0.81400
O203        O  0.04852759  0.49578622  0.54277310    -0.83200
O204        O  0.04973215  0.45835195  0.68732612    -0.78800
O205        O  0.03180702  0.49268812  0.58303973    -0.90400
O206        O  0.09783305  0.53483831  0.62603899    -0.76400
O207        O  0.07841482  0.49154170  0.64404266    -0.85900
O208        O  0.07568383  0.50337888  0.58900753    -0.85600
O209        O  0.04393058  0.45294172  0.63153239    -0.72300
O210        O  0.04168097  0.46435257  0.58063133    -0.84500
Zr211      Zr  0.09312543  0.45433071  0.58402576     2.26400
Zr212      Zr  0.07407817  0.45934135  0.65456108     2.06300
Zr213      Zr  0.06951752  0.48191413  0.55037160     2.10000
Zr214      Zr  0.10496505  0.50885642  0.61185365     1.78800
O215        O  0.04824051  0.46829370  0.50969107    -0.93300
O216        O  0.12316158  0.52101425  0.65537867    -0.41100
O217        O  0.09906458  0.48724672  0.57283216    -0.77700
O218        O  0.10121350  0.47696317  0.62275543    -0.96400
O219        O  0.06621649  0.43736936  0.61567501    -0.89700
O220        O  0.06408318  0.44934759  0.56039387    -0.92500
C221        C  0.08238552  0.53509223  0.63499630     1.01200
C222        C  0.03498812  0.49657994  0.55683131     1.14100
C223        C  0.03758012  0.46505797  0.68754294     1.04900
O224        O  0.09216534  0.47856504  0.69520587    -0.94700
O225        O  0.09982130  0.45050349  0.66260958    -0.90400
O226        O  0.10981196  0.44572423  0.62008190    -0.83600
C227        C  0.11036171  0.44592385  0.64686232     1.11600
O228        O  0.00292122  0.42501566  0.59555389    -0.96700
Zr229      Zr  0.03721871  0.43232195  0.59169117     1.88900
O230        O  0.07685414  0.41803051  0.57756170    -0.73300
O231        O  0.05976641  0.42716555  0.67786062    -0.52600
O232        O  0.01754791  0.40531101  0.62415259    -0.97300
O233        O  0.02036969  0.42083661  0.54701948    -0.54500
O234        O  0.04349725  0.40575225  0.57954336    -0.73800
C235        C  0.05874714  0.40370719  0.57635816     0.98500
O236        O  0.12511754  0.46002637  0.56688772    -0.62700
O237        O  0.09159428  0.51385610  0.52845937    -0.57500
O238        O  0.10058540  0.45776981  0.53398951    -0.94100
O239        O  0.08710165  0.47528086  0.51508557    -0.92600
O240        O  0.12122472  0.53433827  0.57612429    -0.92900
O241        O  0.14031763  0.52046761  0.60733206    -0.91700
C242        C  0.09693288  0.46615618  0.51344457     1.17400
H243        H  0.07654291  0.51567797  0.58296276     0.33300
H244        H  0.11369344  0.47982044  0.63095136     0.44100
H245        H  0.06188289  0.44166377  0.54360836     0.37700
H246        H  0.03234144  0.44544469  0.64302975     0.34200
H247        H  0.11296657  0.51906804  0.66935606     0.25900
H248        H  0.06011901  0.43019900  0.69794595     0.31900
H249        H  0.01039881  0.39329179  0.61237598     0.37800
H250        H  0.12960562  0.54681942  0.58650098     0.32200
H251        H  0.10432356  0.51403497  0.52583901     0.31100
H252        H  0.05378768  0.47920177  0.49578647     0.32800
H253        H  0.02827599  0.41634605  0.53622768     0.31800
H254        H  0.14090108  0.50906458  0.59904877     0.35800
H255        H  0.13473274  0.46703197  0.58203647     0.28500
H256        H  0.01945721  0.49303527  0.64536200     0.32700
H257        H  0.99467286  0.41157785  0.58747162     0.35600
H258        H  0.08628087  0.51265320  0.50939385     0.28200
H259        H  0.12379746  0.44663745  0.56607800     0.41100
H260        H  0.09024294  0.46844110  0.70934045     0.31100
H261        H  0.12713741  0.51111410  0.66051623     0.38700
H262        H  0.02256684  0.43309763  0.53743895     0.30600
H263        H  0.04550763  0.42036045  0.67290435     0.30700
H264        H  0.00789660  0.47087129  0.63468559     0.30900
Zr265      Zr  0.07670807  0.27801976  0.95378206     2.17500
O266        O  0.10493379  0.31125397  0.96202182    -0.51400
O267        O  0.09607159  0.26230568  0.96641771    -0.74600
O268        O  0.08107838  0.28846794  0.00243187    -0.81400
O269        O  0.08633555  0.28222985  0.87574519    -0.83200
O270        O  0.05064688  0.27397158  0.02312224    -0.78800
O271        O  0.10110465  0.29614008  0.91691754    -0.90400
O272        O  0.07826244  0.22924749  0.95644543    -0.76400
O273        O  0.05432488  0.24742824  0.97648230    -0.85900
O274        O  0.06793532  0.25232104  0.92027013    -0.85600
O275        O  0.04886917  0.28156636  0.96797685    -0.72300
O276        O  0.06132112  0.28595749  0.91638277    -0.84500
Zr277      Zr  0.00133997  0.23279627  0.91837687     2.26400
Zr278      Zr  0.02622158  0.25040532  0.99005432     2.06300
Zr279      Zr  0.05186475  0.25961121  0.88367973     2.10000
Zr280      Zr  0.04520835  0.22198637  0.94244285     1.78800
O281        O  0.05689019  0.28267159  0.84588530    -0.93300
O282        O  0.04011395  0.20260796  0.98477140    -0.41100
O283        O  0.02896228  0.22863995  0.90471749    -0.77700
O284        O  0.01692594  0.22463036  0.95583110    -0.96400
O285        O  0.01076322  0.25805643  0.95283854    -0.89700
O286        O  0.02418882  0.26329811  0.89650114    -0.92500
C287        C  0.09396754  0.24478999  0.96507657     1.01200
C288        C  0.10117715  0.29452836  0.89024390     1.14100
C289        C  0.06951078  0.28611035  0.02298249     1.04900
O290        O  0.02636278  0.23004823  0.02863928    -0.94700
O291        O  0.99149622  0.22412776  0.99707265    -0.90400
O292        O  0.97639719  0.21611976  0.95454968    -0.83600
C293        C  0.97625059  0.21441661  0.98120450     1.11600
O294        O  0.05854315  0.32353656  0.92766986    -0.96700
Zr295      Zr  0.03306990  0.28848046  0.93052866     1.88900
O296        O  0.97969768  0.24759717  0.91509760    -0.73300
O297        O  0.00992414  0.26486733  0.01691824    -0.52600
O298        O  0.03033764  0.30869971  0.96723624    -0.97300
O299        O  0.02942571  0.30367283  0.88799527    -0.54500
O300        O  0.99829744  0.27900553  0.93205806    -0.73800
C301        C  0.98175928  0.26418005  0.92421160     0.98500
O302        O  0.97756003  0.19847573  0.90551514    -0.62700
O303        O  0.06246346  0.24044405  0.85541429    -0.57500
O304        O  0.99659160  0.22819208  0.86736905    -0.94100
O305        O  0.02755379  0.24295803  0.84841404    -0.92600
O306        O  0.05525310  0.20669021  0.90637907    -0.92900
O307        O  0.02146884  0.18667156  0.93637577    -0.91700
C308        C  0.00866180  0.23305081  0.84650853     1.17400
H309        H  0.07949327  0.25203097  0.91346182     0.33300
H310        H  0.00753904  0.21179688  0.96355385     0.44100
H311        H  0.01828150  0.26578550  0.88048460     0.37700
H312        H  0.05312425  0.29269238  0.98048706     0.34200
H313        H  0.04904267  0.21236437  0.99872301     0.25900
H314        H  0.00865881  0.25936357  0.03590670     0.31900
H315        H  0.01890965  0.29918458  0.97869279     0.37800
H316        H  0.06040857  0.19913043  0.91665107     0.32200
H317        H  0.06916364  0.24904274  0.83910252     0.31100
H318        H  0.06295078  0.27888315  0.83064394     0.32800
H319        H  0.01567782  0.29479214  0.88147529     0.31800
H320        H  0.01086755  0.18635878  0.92459746     0.35800
H321        H  0.98448082  0.19479530  0.89142597     0.28500
H322        H  0.11325858  0.30963828  0.97622763     0.32700
H323        H  0.05139968  0.33088141  0.92382990     0.35600
H324        H  0.07331732  0.24033395  0.86602204     0.28200
H325        H  0.97669790  0.19035553  0.92195636     0.41100
H326        H  0.04039324  0.23639657  0.03467069     0.31100
H327        H  0.02658924  0.19890051  0.99120849     0.38700
H328        H  0.03798740  0.30217776  0.87404803     0.30600
H329        H  0.01994065  0.27916070  0.01876055     0.30700
H330        H  0.09946248  0.31888333  0.97135172     0.30900
Zr331      Zr  0.13838228  0.39801494  0.22204686     2.17500
O332        O  0.13786364  0.36660152  0.21456430    -0.51400
O333        O  0.17298560  0.41299203  0.20718568    -0.74600
O334        O  0.12873546  0.38536825  0.17452573    -0.81400
O335        O  0.14330861  0.39347565  0.30069468    -0.83200
O336        O  0.11465441  0.40167075  0.15343963    -0.78800
O337        O  0.14136050  0.37801329  0.25966961    -0.90400
O338        O  0.18942237  0.44581512  0.21860753    -0.76400
O339        O  0.14691021  0.42858699  0.19885588    -0.85900
O340        O  0.15644930  0.42391432  0.25488464    -0.85600
O341        O  0.10712184  0.39526814  0.20896964    -0.72300
O342        O  0.11605766  0.39142987  0.26041515    -0.84500
Zr343      Zr  0.11092917  0.44564861  0.25750901     2.26400
Zr344      Zr  0.11594422  0.42634324  0.18631425     2.06300
Zr345      Zr  0.13402138  0.41814666  0.29224486     2.10000
Zr346      Zr  0.16435820  0.45426338  0.23231308     1.78800
O347        O  0.11894204  0.39764323  0.33341741    -0.93300
O348        O  0.17986499  0.47367731  0.19045206    -0.41100
O349        O  0.14238493  0.44904933  0.27071521    -0.77700
O350        O  0.13372933  0.45250018  0.21931430    -0.96400
O351        O  0.09363705  0.41982737  0.22430388    -0.89700
O352        O  0.10290111  0.41520281  0.28005817    -0.92500
C353        C  0.18881215  0.43009120  0.20895765     1.01200
C354        C  0.14366830  0.37981356  0.28627774     1.14100
C355        C  0.11986534  0.38830158  0.15403952     1.04900
O356        O  0.13706823  0.44709111  0.14850739    -0.94700
O357        O  0.10710793  0.45225732  0.17896360    -0.90400
O358        O  0.10138731  0.46138056  0.22158527    -0.83600
C359        C  0.10205972  0.46237807  0.19485903     1.11600
O360        O  0.07519765  0.35420671  0.24473203    -0.96700
Zr361      Zr  0.08545944  0.38949187  0.24723888     1.88900
O362        O  0.07529054  0.43181264  0.26549232    -0.73300
O363        O  0.08514876  0.41349789  0.16004868    -0.52600
O364        O  0.06075065  0.37156449  0.21130623    -0.97300
O365        O  0.06955858  0.37242031  0.29049677    -0.54500
O366        O  0.06040758  0.39883338  0.25477901    -0.73800
C367        C  0.05992790  0.41454238  0.26176252     0.98500
O368        O  0.12176215  0.48082908  0.26471214    -0.62700
O369        O  0.16603818  0.43894253  0.31451854    -0.57500
O370        O  0.11234983  0.45174928  0.30814470    -0.94100
O371        O  0.12633458  0.43489525  0.32765769    -0.92600
O372        O  0.18988390  0.46937717  0.26796993    -0.92900
O373        O  0.17576867  0.48953609  0.23884080    -0.91700
C374        C  0.11856088  0.44599952  0.32917111     1.17400
H375        H  0.16814150  0.42381450  0.26148531     0.33300
H376        H  0.13721725  0.46522439  0.21110176     0.44100
H377        H  0.09474231  0.41308899  0.29626472     0.37700
H378        H  0.09944665  0.38391527  0.19714556     0.34200
H379        H  0.19424911  0.48108629  0.19470938     0.25900
H380        H  0.08940967  0.41738874  0.14050876     0.31900
H381        H  0.05773764  0.38153278  0.20328116     0.37800
H382        H  0.20261532  0.47509260  0.25767794     0.32200
H383        H  0.16513339  0.45013227  0.32292694     0.31100
H384        H  0.12966713  0.40269948  0.34749139     0.32800
H385        H  0.06579934  0.38128982  0.30030881     0.31800
H386        H  0.16963298  0.49018426  0.25661197     0.35800
H387        H  0.12862426  0.48445248  0.28290161     0.28500
H388        H  0.14710833  0.36905334  0.19888968     0.32700
H389        H  0.06102681  0.34693390  0.25027141     0.35600
H390        H  0.16613191  0.43098865  0.33060134     0.28200
H391        H  0.13257935  0.48796636  0.25097793     0.41100
H392        H  0.14456972  0.44052540  0.14238529     0.31100
H393        H  0.17845230  0.46374990  0.17632296     0.38700
H394        H  0.08046504  0.37292727  0.30176730     0.30600
H395        H  0.07922995  0.39883768  0.16032077     0.30700
H396        H  0.12449422  0.35723096  0.20719065     0.30900
Zr397      Zr  0.14017533  0.76033173  0.71309698     2.17500
O398        O  0.13513168  0.78741479  0.69721187    -0.51400
O399        O  0.17474276  0.77921286  0.69901502    -0.74600
O400        O  0.14955239  0.78673951  0.74785472    -0.81400
O401        O  0.11428203  0.73050791  0.64836993    -0.83200
O402        O  0.14769287  0.77322099  0.79051219    -0.78800
O403        O  0.13112167  0.76216482  0.66521433    -0.90400
O404        O  0.19031744  0.76337079  0.71656954    -0.76400
O405        O  0.15657881  0.75302326  0.74900062    -0.85900
O406        O  0.14931999  0.73762060  0.69361603    -0.85600
O407        O  0.11626441  0.74655054  0.75031230    -0.72300
O408        O  0.10966511  0.73153267  0.69956023    -0.84500
Zr409      Zr  0.11062615  0.68666133  0.75428909     2.26400
Zr410      Zr  0.13271133  0.73811113  0.78535953     2.06300
Zr411      Zr  0.11884654  0.70870353  0.68076511     2.10000
Zr412      Zr  0.16501987  0.72993119  0.73028902     1.78800
O413        O  0.09264316  0.68951310  0.64732457    -0.93300
O414        O  0.18892060  0.74097401  0.76830026    -0.41100
O415        O  0.13467659  0.70070906  0.71718720    -0.77700
O416        O  0.14170438  0.71492671  0.76780528    -0.96400
O417        O  0.10197699  0.70970051  0.77291499    -0.89700
O418        O  0.09501984  0.69438077  0.71739488    -0.92500
C419        C  0.19032773  0.77811963  0.70435544     1.01200
C420        C  0.12065404  0.74932350  0.64657371     1.14100
C421        C  0.15161746  0.78783656  0.77446888     1.04900
O422        O  0.16140324  0.75046565  0.81604098    -0.94700
O423        O  0.12457493  0.71491827  0.82272387    -0.90400
O424        O  0.10943385  0.68348238  0.80520363    -0.83600
C425        C  0.11586772  0.69602128  0.82547030     1.11600
O426        O  0.07558496  0.74147179  0.72719397    -0.96700
Zr427      Zr  0.08619680  0.71724084  0.73655279     1.88900
O428        O  0.07485733  0.66532048  0.76025882    -0.73300
O429        O  0.11284851  0.74385491  0.81950929    -0.52600
O430        O  0.07019082  0.72068360  0.77817180    -0.97300
O431        O  0.06204976  0.70707379  0.69892708    -0.54500
O432        O  0.06058507  0.68399277  0.74950046    -0.73800
C433        C  0.05977586  0.66771299  0.75697226     0.98500
O434        O  0.12200941  0.66415211  0.77039669    -0.62700
O435        O  0.14313779  0.71163622  0.64615524    -0.57500
O436        O  0.10201601  0.65974453  0.72167849    -0.94100
O437        O  0.11044978  0.67378940  0.67851236    -0.92600
O438        O  0.18050209  0.72401057  0.69009576    -0.92900
O439        O  0.17769226  0.70750333  0.74043796    -0.91700
C440        C  0.10423815  0.65891684  0.69534829     1.17400
H441        H  0.15795590  0.74331127  0.67768723     0.33300
H442        H  0.14771485  0.71112382  0.78238253     0.44100
H443        H  0.08350807  0.68258873  0.71038848     0.37700
H444        H  0.11308392  0.75632012  0.75725820     0.34200
H445        H  0.20208751  0.74759892  0.75907463     0.25900
H446        H  0.12117422  0.74830835  0.83647889     0.31900
H447        H  0.07794506  0.73498693  0.78305202     0.37800
H448        H  0.19492898  0.73305953  0.69273878     0.32200
H449        H  0.13916591  0.69773673  0.64119427     0.31100
H450        H  0.09972482  0.69050912  0.62970978     0.32800
H451        H  0.05815142  0.69303788  0.69505799     0.31800
H452        H  0.16949504  0.69926124  0.75622706     0.35800
H453        H  0.12935981  0.66283602  0.75444380     0.28500
H454        H  0.14810067  0.79978162  0.69946032     0.32700
H455        H  0.06131452  0.73468607  0.73217639     0.35600
H456        H  0.14002452  0.71699602  0.62937957     0.28200
H457        H  0.13253126  0.67193369  0.78418502     0.41100
H458        H  0.16310554  0.73885274  0.81992309     0.31100
H459        H  0.18795485  0.75198499  0.77717194     0.38700
H460        H  0.06990725  0.71449044  0.68240453     0.30600
H461        H  0.11252255  0.75580886  0.81295602     0.30700
H462        H  0.12624921  0.78838089  0.71114112     0.30900
Zr463      Zr  0.07926897  0.82326799  0.44861841     2.17500
O464        O  0.10909330  0.82266184  0.46304058    -0.51400
O465        O  0.09787512  0.85754753  0.46454356    -0.74600
O466        O  0.10365280  0.83192222  0.41069959    -0.81400
O467        O  0.05106075  0.79242949  0.51230116    -0.83200
O468        O  0.09056991  0.83702187  0.37146767    -0.78800
O469        O  0.08199799  0.80995848  0.49336667    -0.90400
O470        O  0.08010783  0.87303888  0.45611489    -0.76400
O471        O  0.07055254  0.84165533  0.41772688    -0.85900
O472        O  0.05660145  0.83023301  0.47327044    -0.85600
O473        O  0.06478362  0.80139241  0.40931959    -0.72300
O474        O  0.05122549  0.79147672  0.46035672    -0.84500
Zr475      Zr  0.00440550  0.79403847  0.41331695     2.26400
Zr476      Zr  0.05539180  0.81991711  0.37923098     2.06300
Zr477      Zr  0.02841337  0.79849012  0.48435620     2.10000
Zr478      Zr  0.04712910  0.84758061  0.44135971     1.78800
O479        O  0.01051797  0.76994464  0.51510180    -0.93300
O480        O  0.05747194  0.87488014  0.40831679    -0.41100
O481        O  0.01888807  0.81589252  0.45256459    -0.77700
O482        O  0.03186760  0.82648058  0.40180441    -0.96400
O483        O  0.02766875  0.78791440  0.38953326    -0.89700
O484        O  0.01350101  0.77671791  0.44571232    -0.92500
C485        C  0.09581562  0.87296970  0.46411497     1.01200
C486        C  0.06978686  0.79853543  0.51207012     1.14100
C487        C  0.10479748  0.83725267  0.38505494     1.04900
O488        O  0.06398889  0.84898339  0.35035165    -0.94700
O489        O  0.03068246  0.81252540  0.34445385    -0.90400
O490        O  0.99972986  0.79427715  0.36300178    -0.83600
C491        C  0.01176996  0.80253614  0.34248592     1.11600
O492        O  0.06079064  0.75963378  0.42713265    -0.96700
Zr493      Zr  0.03617795  0.77006042  0.42140537     1.88900
O494        O  0.98280851  0.75834230  0.40520638    -0.73300
O495        O  0.06372981  0.80313204  0.34324997    -0.52600
O496        O  0.03949373  0.75556082  0.37810548    -0.97300
O497        O  0.02583937  0.74353675  0.45580094    -0.54500
O498        O  0.00313213  0.74508821  0.40660310    -0.73800
C499        C  0.98612135  0.74371302  0.40320695     0.98500
O500        O  0.98101137  0.80558751  0.40351328    -0.62700
O501        O  0.03249735  0.82089155  0.52258052    -0.57500
O502        O  0.97845583  0.78300144  0.44800689    -0.94100
O503        O  0.99342777  0.78913799  0.49045856    -0.92600
O504        O  0.03835818  0.85818326  0.48423330    -0.92900
O505        O  0.02402897  0.85979913  0.43436497    -0.91700
C506        C  0.97816705  0.78360738  0.47465808     1.17400
H507        H  0.06265472  0.83794679  0.48985494     0.33300
H508        H  0.02748102  0.83313897  0.38906272     0.44100
H509        H  0.00210123  0.76459734  0.45218995     0.37700
H510        H  0.07428204  0.79869050  0.40021538     0.34200
H511        H  0.06354352  0.88710353  0.41983884     0.25900
H512        H  0.05105699  0.79087766  0.33904870     0.31900
H513        H  0.03062031  0.75704764  0.36474062     0.37800
H514        H  0.05075800  0.86468397  0.49525351     0.32200
H515        H  0.01892053  0.81592280  0.52994910     0.31100
H516        H  0.00924532  0.77568978  0.53287445     0.32800
H517        H  0.01149766  0.73847638  0.45881334     0.31800
H518        H  0.01083477  0.84761063  0.43322225     0.35800
H519        H  0.98142739  0.81328794  0.42020216     0.28500
H520        H  0.12047727  0.83573154  0.45758263     0.32700
H521        H  0.07062193  0.76947045  0.44023100     0.35600
H522        H  0.03936835  0.81767303  0.53729321     0.28200
H523        H  0.98743825  0.81583124  0.38881738     0.41100
H524        H  0.06919086  0.84654709  0.33284981     0.31100
H525        H  0.06877604  0.87533424  0.39812795     0.38700
H526        H  0.03217861  0.75048703  0.47335895     0.30600
H527        H  0.06653212  0.81155135  0.32645720     0.30700
H528        H  0.10990301  0.81283067  0.45075318     0.30900
Zr529      Zr  0.84167650  0.61010321  0.78599121     2.17500
O530        O  0.84508667  0.64146971  0.80245608    -0.51400
O531        O  0.80644340  0.59308002  0.79682664    -0.74600
O532        O  0.83299908  0.62687459  0.74955956    -0.81400
O533        O  0.86731162  0.60601166  0.85108247    -0.83200
O534        O  0.83464584  0.61398441  0.70778931    -0.78800
O535        O  0.84993565  0.62038352  0.83470149    -0.90400
O536        O  0.79213859  0.56161749  0.77938026    -0.76400
O537        O  0.82775617  0.58730016  0.74843110    -0.85900
O538        O  0.83192854  0.57771307  0.80409352    -0.85600
O539        O  0.86749528  0.62168943  0.75127606    -0.72300
O540        O  0.87159660  0.61166839  0.80204832    -0.84500
Zr541      Zr  0.87526494  0.56870287  0.74667593     2.26400
Zr542      Zr  0.85342155  0.59780870  0.71453250     2.06300
Zr543      Zr  0.86184639  0.57919754  0.81954580     2.10000
Zr544      Zr  0.81889151  0.55530439  0.76579446     1.78800
O545        O  0.88217820  0.58272080  0.86004938    -0.93300
O546        O  0.79600373  0.54334505  0.72657584    -0.41100
O547        O  0.84904486  0.55691475  0.78103157    -0.77700
O548        O  0.84433000  0.56526849  0.73063061    -0.96400
O549        O  0.88401551  0.60079245  0.72948883    -0.89700
O550        O  0.88786406  0.59049417  0.78585579    -0.92500
C551        C  0.79130314  0.57606369  0.79127314     1.01200
C552        C  0.86084393  0.61832962  0.85305709     1.14100
C553        C  0.83059542  0.62496066  0.72296032     1.04900
O554        O  0.82803667  0.57897729  0.67986293    -0.94700
O555        O  0.86617182  0.58708861  0.67728385    -0.90400
O556        O  0.87945994  0.56931560  0.69574930    -0.83600
C557        C  0.87489878  0.57690920  0.67511390     1.11600
O558        O  0.90621197  0.65733866  0.77581635    -0.96700
Zr559      Zr  0.89714402  0.62270846  0.76791121     1.88900
O560        O  0.91150381  0.58381078  0.74563231    -0.73300
O561        O  0.87228342  0.62729772  0.68566584    -0.52600
O562        O  0.91642911  0.64212238  0.72789072    -0.97300
O563        O  0.91896600  0.63743403  0.80791203    -0.54500
O564        O  0.92356879  0.61518999  0.76250978    -0.73800
C565        C  0.92568331  0.60066192  0.75417903     0.98500
O566        O  0.86738525  0.53603196  0.72912612    -0.62700
O567        O  0.83390781  0.55632712  0.84860421    -0.57500
O568        O  0.88085969  0.54839319  0.77983498    -0.94100
O569        O  0.87208361  0.55412550  0.82269056    -0.92600
O570        O  0.80301276  0.53166122  0.80369941    -0.92900
O571        O  0.80862265  0.52078149  0.75495116    -0.91700
C572        C  0.87836373  0.54538063  0.80619743     1.17400
H573        H  0.82239793  0.57422586  0.81897217     0.33300
H574        H  0.83931206  0.55598765  0.71529252     0.44100
H575        H  0.89882587  0.59005806  0.79457404     0.37700
H576        H  0.87068385  0.63473235  0.74463058     0.34200
H577        H  0.78309926  0.53341127  0.73474951     0.25900
H578        H  0.88515276  0.62790760  0.68235707     0.31900
H579        H  0.90951318  0.64915621  0.72123612     0.37800
H580        H  0.78861198  0.52526151  0.79977683     0.32200
H581        H  0.83557740  0.54454673  0.85092899     0.31100
H582        H  0.87260928  0.57579767  0.87534688     0.32800
H583        H  0.92212356  0.62716268  0.81424788     0.31800
H584        H  0.81642190  0.52151363  0.73822183     0.35800
H585        H  0.85564773  0.53181594  0.71702755     0.28500
H586        H  0.83226156  0.64076312  0.79833170     0.32700
H587        H  0.92064323  0.66523414  0.77197105     0.35600
H588        H  0.83672521  0.56263711  0.86721536     0.28200
H589        H  0.87832492  0.53841919  0.71624779     0.41100
H590        H  0.83180359  0.58789936  0.66346326     0.31100
H591        H  0.79417170  0.55471476  0.72146791     0.38700
H592        H  0.91029185  0.63780143  0.82274899     0.30600
H593        H  0.86556048  0.62370509  0.66734642     0.30700
H594        H  0.85479767  0.65179787  0.78970979     0.30900
Zr595      Zr  0.90180723  0.73217919  0.05052922     2.17500
O596        O  0.87410083  0.69982082  0.03696110    -0.51400
O597        O  0.88271696  0.74760765  0.03544614    -0.74600
O598        O  0.87616317  0.71696804  0.08696222    -0.81400
O599        O  0.93091989  0.73132115  0.98642102    -0.83200
O600        O  0.88999463  0.73096150  0.12852220    -0.78800
O601        O  0.89972175  0.71849188  0.00430708    -0.90400
O602        O  0.89985312  0.78029592  0.04754816    -0.76400
O603        O  0.91004348  0.75841010  0.08266841    -0.85900
O604        O  0.92484274  0.76222321  0.02703905    -0.85600
O605        O  0.91596657  0.72411342  0.08941729    -0.72300
O606        O  0.93005551  0.72886654  0.03890027    -0.84500
Zr607      Zr  0.97640583  0.77751074  0.08789306     2.26400
Zr608      Zr  0.92505930  0.75128334  0.12078445     2.06300
Zr609      Zr  0.95326288  0.75902113  0.01607661     2.10000
Zr610      Zr  0.93342771  0.78822634  0.05998787     1.78800
O611        O  0.97255524  0.74704349  0.99104555    -0.93300
O612        O  0.92410352  0.80524641  0.09431511    -0.41100
O613        O  0.96199359  0.78530742  0.04883667    -0.77700
O614        O  0.94863951  0.78198482  0.09945797    -0.96400
O615        O  0.95295178  0.74741699  0.11012034    -0.89700
O616        O  0.96781779  0.75163072  0.05466225    -0.92500
C617        C  0.88435084  0.76483807  0.03819995     1.01200
C618        C  0.91208404  0.71925988  0.98587518     1.14100
C619        C  0.87524374  0.71924169  0.11339001     1.04900
O620        O  0.91710197  0.77378194  0.14572234    -0.94700
O621        O  0.94924652  0.76551135  0.15686653    -0.90400
O622        O  0.98043118  0.78115250  0.13868505    -0.83600
C623        C  0.96811063  0.77528900  0.15922463     1.11600
O624        O  0.92094426  0.68676617  0.06760093    -0.96700
Zr625      Zr  0.94468194  0.72160387  0.07745012     1.88900
O626        O  0.99753369  0.76278208  0.09508461    -0.73300
O627        O  0.91589423  0.72782452  0.15937150    -0.52600
O628        O  0.93829063  0.70314046  0.12094181    -0.97300
O629        O  0.95587197  0.70603279  0.04323404    -0.54500
O630        O  0.97725799  0.72914005  0.09384629    -0.73800
C631        C  0.99425639  0.74484594  0.09711407     0.98500
O632        O  0.00018155  0.81166108  0.10156127    -0.62700
O633        O  0.95079079  0.77653317  0.97541803    -0.57500
O634        O  0.00216954  0.79447828  0.05293986    -0.94100
O635        O  0.98732409  0.78643364  0.01032721    -0.92600
O636        O  0.93794884  0.80623956  0.01652886    -0.92900
O637        O  0.95756366  0.82357245  0.06401507    -0.91700
C638        C  0.00240517  0.79625510  0.02633611     1.17400
H639        H  0.91906541  0.76423715  0.01041752     0.33300
H640        H  0.95281873  0.79275043  0.11264758     0.44100
H641        H  0.97931021  0.75105621  0.04826459     0.37700
H642        H  0.90619808  0.71174846  0.09786929     0.34200
H643        H  0.92181057  0.81475269  0.08337390     0.25900
H644        H  0.92786949  0.72678900  0.16318493     0.31900
H645        H  0.92450216  0.69934226  0.12607918     0.37800
H646        H  0.95051275  0.80798096  0.00868897     0.32200
H647        H  0.96308504  0.78046919  0.96465925     0.31100
H648        H  0.97185691  0.75025763  0.97127406     0.32800
H649        H  0.97048818  0.71279910  0.04517550     0.31800
H650        H  0.96976343  0.82397180  0.07089306     0.35800
H651        H  0.00067991  0.82002614  0.08564012     0.28500
H652        H  0.86218427  0.70135595  0.03750528     0.32700
H653        H  0.92553665  0.67894121  0.07841293     0.35600
H654        H  0.94007239  0.76614240  0.96391396     0.28200
H655        H  0.99352063  0.81504356  0.11642339     0.41100
H656        H  0.90377825  0.77045188  0.13890532     0.31100
H657        H  0.91068168  0.79505962  0.10062176     0.38700
H658        H  0.95374201  0.71065111  0.02500866     0.30600
H659        H  0.91463495  0.73492881  0.17569661     0.30700
H660        H  0.87225453  0.69055257  0.05237057     0.30900
Zr661      Zr  0.05246182  0.58230771  0.11750185     2.17500
O662        O  0.02157578  0.55332621  0.13280304    -0.51400
O663        O  0.06979644  0.56489816  0.13071705    -0.74600
O664        O  0.03649840  0.55689620  0.08112673    -0.81400
O665        O  0.05433955  0.61033079  0.18302978    -0.83200
O666        O  0.04417559  0.57225961  0.03895695    -0.78800
O667        O  0.04033532  0.57904110  0.16495186    -0.90400
O668        O  0.10097319  0.58169666  0.11263553    -0.76400
O669        O  0.07529360  0.59161168  0.07990469    -0.85900
O670        O  0.08431405  0.60509629  0.13676603    -0.85600
O671        O  0.04056667  0.59688861  0.08384627    -0.72300
O672        O  0.05018778  0.61011807  0.13426317    -0.84500
Zr673      Zr  0.09301830  0.65807349  0.08052912     2.26400
Zr674      Zr  0.06439791  0.60723021  0.04701763     2.06300
Zr675      Zr  0.08192725  0.63304608  0.15289711     2.10000
Zr676      Zr  0.10679399  0.61474583  0.09853502     1.78800
O677        O  0.07485527  0.65047905  0.18936001    -0.93300
O678        O  0.11943234  0.60455942  0.05910400    -0.41100
O679        O  0.10454383  0.64299983  0.11446406    -0.77700
O680        O  0.09658934  0.63054437  0.06415748    -0.96400
O681        O  0.06120697  0.63475345  0.06281687    -0.89700
O682        O  0.07105760  0.64825286  0.11950182    -0.92500
C683        C  0.08676013  0.56670211  0.12535530     1.01200
C684        C  0.04192184  0.59148446  0.18380794     1.14100
C685        C  0.03570721  0.55678552  0.05435964     1.04900
O686        O  0.08065238  0.59723372  0.01238199    -0.94700
O687        O  0.07882228  0.63139251  0.01078057    -0.90400
O688        O  0.09477162  0.66245037  0.02950106    -0.83600
C689        C  0.08883879  0.65032415  0.00869770     1.11600
O690        O  0.00396986  0.60111590  0.10710985    -0.96700
Zr691      Zr  0.03915686  0.62526135  0.10132896     1.88900
O692        O  0.07686554  0.67872695  0.08024270    -0.73300
O693        O  0.03735721  0.60157062  0.01587680    -0.52600
O694        O  0.02020775  0.62595488  0.06136273    -0.97300
O695        O  0.02523774  0.62985441  0.14441403    -0.54500
O696        O  0.04623189  0.65922783  0.09913110    -0.73800
C697        C  0.06026055  0.67596289  0.09031127     0.98500
O698        O  0.12573168  0.68270719  0.06273890    -0.62700
O699        O  0.10307346  0.62894178  0.18655050    -0.57500
O700        O  0.11207965  0.68348973  0.11493668    -0.94100
O701        O  0.10843468  0.66785629  0.15655197    -0.92600
O702        O  0.13031096  0.62341320  0.13666763    -0.92900
O703        O  0.14115265  0.63824209  0.08625853    -0.91700
C704        C  0.11630319  0.68335264  0.14072868     1.17400
H705        H  0.08801153  0.59932712  0.15186083     0.33300
H706        H  0.10609667  0.63506923  0.04904356     0.44100
H707        H  0.07146359  0.65949541  0.12872658     0.37700
H708        H  0.02759936  0.58707226  0.07720255     0.34200
H709        H  0.12864553  0.60063357  0.06737908     0.25900
H710        H  0.03747296  0.61440777  0.01544750     0.31900
H711        H  0.01772440  0.63711785  0.06490404     0.37800
H712        H  0.13537091  0.61398910  0.13500629     0.32200
H713        H  0.11475178  0.64243049  0.18870453     0.31100
H714        H  0.08177896  0.64949430  0.20605487     0.32800
H715        H  0.03672866  0.64067104  0.15431345     0.31800
H716        H  0.14060328  0.64937250  0.07696267     0.35800
H717        H  0.13518694  0.68535186  0.07813412     0.28500
H718        H  0.02337178  0.54166869  0.12974821     0.32700
H719        H  0.99717978  0.60906177  0.10734998     0.35600
H720        H  0.09586876  0.62631949  0.20447087     0.28200
H721        H  0.12924208  0.67545819  0.04895245     0.41100
H722        H  0.09503994  0.60646088  0.01500348     0.31100
H723        H  0.10798087  0.59185534  0.05277057     0.38700
H724        H  0.02163111  0.61780436  0.15568858     0.30600
H725        H  0.04201681  0.60042788  0.99712414     0.30700
H726        H  0.01135250  0.55181182  0.11920582     0.30900
Zr727      Zr  0.93042945  0.52206533  0.38263107     2.17500
O728        O  0.95982462  0.52176611  0.36535921    -0.51400
O729        O  0.91305059  0.48673317  0.37232660    -0.74600
O730        O  0.94804436  0.51507542  0.41971193    -0.81400
O731        O  0.92787725  0.54727413  0.31578584    -0.83200
O732        O  0.93431046  0.51606357  0.46101432    -0.78800
O733        O  0.94259074  0.53102897  0.33501922    -0.90400
O734        O  0.88108901  0.47294790  0.38716048    -0.76400
O735        O  0.90690358  0.50827259  0.41940631    -0.85900
O736        O  0.89876165  0.51333435  0.36297646    -0.85600
O737        O  0.94205649  0.54799264  0.41706735    -0.72300
O738        O  0.93344753  0.55261342  0.36590673    -0.84500
Zr739      Zr  0.89030258  0.55792108  0.41828487     2.26400
Zr740      Zr  0.91739624  0.53427693  0.45288217     2.06300
Zr741      Zr  0.90169664  0.54393231  0.34686769     2.10000
Zr742      Zr  0.87568478  0.50046056  0.40059554     1.78800
O743        O  0.90860274  0.56822326  0.31009489    -0.93300
O744        O  0.86456847  0.47791173  0.44041927    -0.41100
O745        O  0.87853218  0.53125536  0.38447426    -0.77700
O746        O  0.88567094  0.52641240  0.43495727    -0.96400
O747        O  0.92141102  0.56532519  0.43726611    -0.89700
O748        O  0.91307561  0.57004382  0.38027696    -0.92500
C749        C  0.89573503  0.47177009  0.37671180     1.01200
C750        C  0.94048582  0.54114297  0.31546989     1.14100
C751        C  0.94597382  0.51264549  0.44628281     1.04900
O752        O  0.89934702  0.50911796  0.48840692    -0.94700
O753        O  0.90473620  0.54638012  0.48845577    -0.90400
O754        O  0.89058921  0.56307646  0.46893444    -0.83600
C755        C  0.89609417  0.55667895  0.48999823     1.11600
O756        O  0.97935368  0.58781202  0.39867878    -0.96700
Zr757      Zr  0.94436604  0.57825690  0.40006034     1.88900
O758        O  0.90641186  0.59463952  0.41757240    -0.73300
O759        O  0.94547835  0.55496372  0.48301767    -0.52600
O760        O  0.96114905  0.59632439  0.44213877    -0.97300
O761        O  0.96164371  0.59934027  0.36008474    -0.54500
O762        O  0.93816135  0.60578218  0.40328189    -0.73800
C763        C  0.92375814  0.60855385  0.40987263     0.98500
O764        O  0.85740961  0.54961125  0.43519194    -0.62700
O765        O  0.87984975  0.51815545  0.31431627    -0.57500
O766        O  0.87193387  0.56489720  0.38346392    -0.94100
O767        O  0.87642031  0.55370937  0.34172964    -0.92600
O768        O  0.85145622  0.48400632  0.36365429    -0.92900
O769        O  0.84155890  0.49016293  0.41348747    -0.91700
C770        C  0.86853394  0.56139088  0.35732223     1.17400
H771        H  0.89523778  0.50385317  0.34798577     0.33300
H772        H  0.87597746  0.52164604  0.44981236     0.44100
H773        H  0.91330163  0.58123034  0.37103450     0.37700
H774        H  0.95482474  0.55090475  0.42421734     0.34200
H775        H  0.85461025  0.46483917  0.43272195     0.25900
H776        H  0.94171266  0.54830576  0.50141625     0.31900
H777        H  0.96993788  0.61022595  0.43591484     0.37800
H778        H  0.85050957  0.49487489  0.35423618     0.32200
H779        H  0.86913055  0.52117733  0.31031156     0.31100
H780        H  0.90223720  0.56017024  0.29327032     0.32800
H781        H  0.95616072  0.60837340  0.35783347     0.31800
H782        H  0.84017377  0.50196655  0.40957847     0.35800
H783        H  0.84808086  0.53964569  0.42176781     0.28500
H784        H  0.95782898  0.50845216  0.37019251     0.32700
H785        H  0.97966212  0.57682355  0.38859332     0.35600
H786        H  0.88756597  0.52135189  0.29678190     0.28200
H787        H  0.85532378  0.54183232  0.45247953     0.41100
H788        H  0.88513102  0.50388224  0.48418271     0.31100
H789        H  0.87603054  0.47621154  0.44521243     0.38700
H790        H  0.95648541  0.59033453  0.34381524     0.30600
H791        H  0.95650976  0.55303266  0.47657605     0.30700
H792        H  0.97093630  0.53123803  0.37725336     0.30900
Zr793      Zr  0.74466270  0.60911008  0.28290719     2.17500
O794        O  0.77661283  0.63872807  0.29249738    -0.51400
O795        O  0.76512504  0.59450642  0.29556368    -0.74600
O796        O  0.74665577  0.62152141  0.33031659    -0.81400
O797        O  0.75325164  0.61626986  0.20440004    -0.83200
O798        O  0.71631290  0.60538068  0.35127343    -0.78800
O799        O  0.76650981  0.63095475  0.24588091    -0.90400
O800        O  0.74828172  0.56145407  0.28568495    -0.76400
O801        O  0.72236212  0.57896783  0.30656776    -0.85900
O802        O  0.73719385  0.58283660  0.25075504    -0.85600
O803        O  0.71625356  0.61238639  0.29481864    -0.72300
O804        O  0.72922491  0.61531908  0.24387718    -0.84500
Zr805      Zr  0.66989422  0.56152767  0.24674885     2.26400
Zr806      Zr  0.69356648  0.58158226  0.31759990     2.06300
Zr807      Zr  0.72082889  0.58830327  0.21270685     2.10000
Zr808      Zr  0.71445498  0.55287682  0.27396799     1.78800
O809        O  0.72600689  0.60532094  0.16819771    -0.93300
O810        O  0.71103116  0.53574370  0.31797543    -0.41100
O811        O  0.69800605  0.55777586  0.23487535    -0.77700
O812        O  0.68549036  0.55491696  0.28554550    -0.96400
O813        O  0.67810026  0.58780415  0.27902297    -0.89700
O814        O  0.69262963  0.59160807  0.22369802    -0.92500
C815        C  0.76382973  0.57736565  0.29382609     1.01200
C816        C  0.76684210  0.63002749  0.21913210     1.14100
C817        C  0.73482100  0.61856906  0.35080023     1.04900
O818        O  0.69248952  0.56223438  0.35823343    -0.94700
O819        O  0.65917574  0.55538288  0.32491358    -0.90400
O820        O  0.64429486  0.54553666  0.28246850    -0.83600
C821        C  0.64409560  0.54486312  0.30923769     1.11600
O822        O  0.72422897  0.65333035  0.25644541    -0.96700
Zr823      Zr  0.70062050  0.61773509  0.25567692     1.88900
O824        O  0.64790739  0.57533563  0.23990056    -0.73300
O825        O  0.67646187  0.59709636  0.33974042    -0.52600
O826        O  0.69403702  0.63611912  0.29123764    -0.97300
O827        O  0.70354733  0.63453056  0.21150825    -0.54500
O828        O  0.66646729  0.60883126  0.24661907    -0.73800
C829        C  0.65001955  0.59285766  0.24169118     0.98500
O830        O  0.64734713  0.52654808  0.23583580    -0.62700
O831        O  0.73501862  0.56895874  0.19377063    -0.57500
O832        O  0.66540550  0.55642382  0.19609939    -0.94100
O833        O  0.69646614  0.57058347  0.17748599    -0.92600
O834        O  0.72203220  0.53562508  0.23780883    -0.92900
O835        O  0.69219378  0.51695210  0.27315494    -0.91700
C836        C  0.67756444  0.56093709  0.17546309     1.17400
H837        H  0.74900163  0.58288456  0.24431906     0.33300
H838        H  0.67622868  0.54229602  0.29393146     0.44100
H839        H  0.68686471  0.59377116  0.20721376     0.37700
H840        H  0.71986089  0.62379580  0.30653799     0.34200
H841        H  0.72274135  0.54505435  0.32909363     0.25900
H842        H  0.67547609  0.59330327  0.35961320     0.31900
H843        H  0.67996534  0.62731806  0.29651351     0.37800
H844        H  0.71177229  0.53229824  0.22335208     0.32200
H845        H  0.72604417  0.56116878  0.17836465     0.31100
H846        H  0.73083084  0.59859126  0.15545655     0.32800
H847        H  0.69044649  0.62676385  0.20238295     0.31800
H848        H  0.67917782  0.51523487  0.26751982     0.35800
H849        H  0.65440682  0.52311565  0.22164993     0.28500
H850        H  0.78252133  0.63495848  0.30795824     0.32700
H851        H  0.73677245  0.65432379  0.26299531     0.35600
H852        H  0.74740244  0.57889943  0.18440866     0.28200
H853        H  0.64745465  0.51916479  0.25261884     0.41100
H854        H  0.68161292  0.56142734  0.36994797     0.31100
H855        H  0.69966294  0.53566471  0.32743210     0.38700
H856        H  0.71263056  0.63188412  0.20016756     0.30600
H857        H  0.68614206  0.61155686  0.33942556     0.30700
H858        H  0.77355976  0.64865476  0.30056617     0.30900
Zr859      Zr  0.80488112  0.73022419  0.54944032     2.17500
O860        O  0.80522694  0.69943925  0.53978511    -0.51400
O861        O  0.83970151  0.74576956  0.53500053    -0.74600
O862        O  0.79420185  0.71738690  0.50217908    -0.81400
O863        O  0.80762059  0.72357472  0.62777027    -0.83200
O864        O  0.77969112  0.73355701  0.48214344    -0.78800
O865        O  0.80872509  0.71027244  0.58607436    -0.90400
O866        O  0.85611730  0.77831649  0.54783860    -0.76400
O867        O  0.81359285  0.76099911  0.52682741    -0.85900
O868        O  0.82277750  0.75582073  0.58278126    -0.85600
O869        O  0.77336337  0.72736766  0.53754812    -0.72300
O870        O  0.78260223  0.72322634  0.58814741    -0.84500
Zr871      Zr  0.77689323  0.77711356  0.58632183     2.26400
Zr872      Zr  0.78245915  0.75862535  0.51512325     2.06300
Zr873      Zr  0.80034136  0.74972184  0.62035644     2.10000
Zr874      Zr  0.83073070  0.78638149  0.56083287     1.78800
O875        O  0.78418379  0.72931263  0.66118821    -0.93300
O876        O  0.84509469  0.80578478  0.51857513    -0.41100
O877        O  0.80845587  0.78060136  0.59893963    -0.77700
O878        O  0.80008353  0.78482617  0.54833925    -0.96400
O879        O  0.75975147  0.75147496  0.55300345    -0.89700
O880        O  0.76914119  0.74689135  0.60907406    -0.92500
C881        C  0.85559105  0.76274087  0.53777234     1.01200
C882        C  0.80953175  0.71101394  0.61285077     1.14100
C883        C  0.78481985  0.72017057  0.48226140     1.04900
O884        O  0.80444177  0.77826522  0.47726603    -0.94700
O885        O  0.77412264  0.78472092  0.50781301    -0.90400
O886        O  0.76866147  0.79382138  0.55054434    -0.83600
C887        C  0.76916222  0.79477210  0.52387543     1.11600
O888        O  0.74070738  0.68591080  0.57173144    -0.96700
Zr889      Zr  0.75177990  0.72125196  0.57618703     1.88900
O890        O  0.74084551  0.76284402  0.59271435    -0.73300
O891        O  0.75310717  0.74785890  0.48616521    -0.52600
O892        O  0.72610961  0.70574200  0.54082116    -0.97300
O893        O  0.73718037  0.70310515  0.61938546    -0.54500
O894        O  0.72628057  0.72927102  0.58765420    -0.73800
C895        C  0.72558086  0.74519172  0.59215303     0.98500
O896        O  0.78551338  0.81056994  0.60116331    -0.62700
O897        O  0.83218599  0.76787723  0.64415130    -0.57500
O898        O  0.77994733  0.78445294  0.63630966    -0.94100
O899        O  0.79503459  0.76855198  0.65542662    -0.92600
O900        O  0.85542611  0.80056934  0.59772980    -0.92900
O901        O  0.84455498  0.82209089  0.56712151    -0.91700
C902        C  0.78731235  0.77971675  0.65699259     1.17400
H903        H  0.83445091  0.75564539  0.58928362     0.33300
H904        H  0.80360468  0.79764887  0.54044885     0.44100
H905        H  0.76123123  0.74497246  0.62552133     0.37700
H906        H  0.76547560  0.71601063  0.52583779     0.34200
H907        H  0.84550537  0.79629120  0.50516577     0.25900
H908        H  0.75828842  0.75190013  0.46699735     0.31900
H909        H  0.72778977  0.71693273  0.52895082     0.37800
H910        H  0.84841541  0.80253189  0.61357186     0.32200
H911        H  0.82878427  0.76749898  0.66410239     0.31100
H912        H  0.79451618  0.73451769  0.67583465     0.32800
H913        H  0.72324507  0.69337085  0.61455944     0.31800
H914        H  0.83429576  0.82327108  0.57784472     0.35800
H915        H  0.79562019  0.81961673  0.58760717     0.28500
H916        H  0.81344288  0.70200492  0.52283276     0.32700
H917        H  0.75303281  0.68513607  0.57274669     0.35600
H918        H  0.83813913  0.75919946  0.64285277     0.28200
H919        H  0.77363559  0.81178611  0.59739196     0.41100
H920        H  0.79608814  0.77352560  0.46034758     0.31100
H921        H  0.83475489  0.80844642  0.51117841     0.38700
H922        H  0.73605716  0.71262330  0.63192858     0.30600
H923        H  0.74634022  0.73312785  0.48597751     0.30700
H924        H  0.79152751  0.68957917  0.53411351     0.30900
Zr925      Zr  0.71664900  0.81889525  0.94652694     2.17500
O926        O  0.68658606  0.82079729  0.95475132    -0.51400
O927        O  0.73086544  0.85375215  0.96023071    -0.74600
O928        O  0.70338246  0.80880468  0.99336827    -0.81400
O929        O  0.71074494  0.82040623  0.86797838    -0.83200
O930        O  0.71830400  0.79330926  0.01423406    -0.78800
O931        O  0.69557125  0.81939964  0.90887805    -0.90400
O932        O  0.76397658  0.87044363  0.95132107    -0.76400
O933        O  0.74636057  0.82697335  0.97131586    -0.85900
O934        O  0.74329241  0.83808343  0.91523559    -0.85600
O935        O  0.71362103  0.78715132  0.95856427    -0.72300
O936        O  0.71146769  0.79755243  0.90743412    -0.84500
Zr937      Zr  0.76539745  0.79253698  0.91184872     2.26400
Zr938      Zr  0.74409089  0.79568943  0.98259086     2.06300
Zr939      Zr  0.73887895  0.81657586  0.87706410     2.10000
Zr940      Zr  0.77283829  0.84537727  0.93936431     1.78800
O941        O  0.72310766  0.80395657  0.83208974    -0.93300
O942        O  0.78973234  0.85891374  0.98343035    -0.41100
O943        O  0.76896021  0.82440406  0.90026614    -0.77700
O944        O  0.77109396  0.81437129  0.95096193    -0.96400
O945        O  0.73876388  0.77432824  0.94368802    -0.89700
O946        O  0.73577529  0.78501879  0.88777663    -0.92500
C947        C  0.74788022  0.86971257  0.95926974     1.01200
C948        C  0.69685617  0.82044375  0.88214840     1.14100
C949        C  0.70549407  0.79919182  0.01354558     1.04900
O950        O  0.76373635  0.81700270  0.02083574    -0.94700
O951        O  0.76958868  0.78623980  0.99003234    -0.90400
O952        O  0.78031561  0.78201092  0.94769457    -0.83600
C953        C  0.78022202  0.78164625  0.97445109     1.11600
O954        O  0.67378375  0.75507675  0.92107162    -0.96700
Zr955      Zr  0.70925505  0.76654850  0.91920037     1.88900
O956        O  0.75229457  0.75679580  0.90442514    -0.73300
O957        O  0.73166516  0.76583166  0.01128993    -0.52600
O958        O  0.69146317  0.73971343  0.95267910    -0.97300
O959        O  0.69319242  0.75382449  0.87438087    -0.54500
O960        O  0.71871509  0.74173200  0.90912064    -0.73800
C961        C  0.73482020  0.74133820  0.90496006     0.98500
O962        O  0.80041134  0.80519886  0.90116367    -0.62700
O963        O  0.75717642  0.85002522  0.85743034    -0.57500
O964        O  0.77249538  0.79504769  0.86142133    -0.94100
O965        O  0.75866138  0.81224208  0.84260447    -0.92600
O966        O  0.78915679  0.87026405  0.90295508    -0.92900
O967        O  0.80872184  0.85962913  0.93884247    -0.91700
C968        C  0.76877723  0.80341550  0.84084056     1.17400
H969        H  0.74315841  0.84985488  0.90894820     0.33300
H970        H  0.78356174  0.81764925  0.95967984     0.44100
H971        H  0.73420856  0.77737640  0.87112033     0.37700
H972        H  0.70198524  0.77915748  0.96977442     0.34200
H973        H  0.77984988  0.85995988  0.99527168     0.25900
H974        H  0.73264810  0.77049236  0.03072826     0.31900
H975        H  0.70186161  0.73777296  0.96158047     0.37800
H976        H  0.78137876  0.87718054  0.90148251     0.32200
H977        H  0.75809993  0.84794878  0.83726612     0.31100
H978        H  0.72710543  0.81595313  0.82049541     0.32800
H979        H  0.70142719  0.74923563  0.86465636     0.31800
H980        H  0.81090067  0.85008582  0.92781825     0.35800
H981        H  0.80444782  0.81735892  0.88993165     0.28500
H982        H  0.68958551  0.82990073  0.97078644     0.32700
H983        H  0.66703393  0.74089848  0.91542052     0.35600
H984        H  0.74792700  0.85530535  0.85858185     0.28200
H985        H  0.80749214  0.81037058  0.91902100     0.41100
H986        H  0.75550038  0.81098411  0.03765736     0.31100
H987        H  0.79112751  0.84803789  0.99194762     0.38700
H988        H  0.69544147  0.76580132  0.86392941     0.30600
H989        H  0.71723468  0.75811892  0.00745736     0.30700
H990        H  0.67645880  0.80751232  0.96169087     0.30900
Zr991      Zr  0.59833909  0.75752860  0.21224072     2.17500
O992        O  0.63017582  0.78673415  0.20050548    -0.51400
O993        O  0.58242324  0.77725362  0.20255467    -0.74600
O994        O  0.60669192  0.76026044  0.16279448    -0.81400
O995        O  0.60606828  0.76819868  0.28951521    -0.83200
O996        O  0.59059006  0.72934682  0.14340988    -0.78800
O997        O  0.61892453  0.78223692  0.24746892    -0.90400
O998        O  0.54999500  0.75982815  0.21568053    -0.76400
O999        O  0.56671345  0.73502586  0.19244533    -0.85900
O1000       O  0.57438264  0.74940979  0.24819161    -0.85600
O1001       O  0.60076558  0.72902593  0.19747138    -0.72300
O1002       O  0.60782783  0.74260094  0.24857710    -0.84500
Zr1003     Zr  0.55432626  0.68263509  0.25145972     2.26400
Zr1004     Zr  0.56850311  0.70624338  0.17862019     2.06300
Zr1005     Zr  0.58305829  0.73367534  0.28373268     2.10000
Zr1006     Zr  0.54303734  0.72657232  0.22891096     1.78800
O1007       O  0.60762856  0.73920840  0.31922453    -0.93300
O1008       O  0.52176599  0.72026554  0.18842145    -0.41100
O1009       O  0.55127835  0.71078645  0.26551550    -0.77700
O1010       O  0.54444637  0.69756752  0.21506239    -0.96400
O1011       O  0.57788033  0.69134621  0.21465874    -0.89700
O1012       O  0.58586812  0.70552285  0.27041765    -0.92500
C1013       C  0.56521278  0.77548244  0.20608991     1.01200
C1014       C  0.61808456  0.78270257  0.27421850     1.14100
C1015       C  0.60304620  0.74814125  0.14249641     1.04900
O1016       O  0.54576288  0.70782220  0.14523055    -0.94700
O1017       O  0.54311282  0.67108747  0.17422663    -0.90400
O1018       O  0.53673562  0.65658841  0.21718483    -0.83600
C1019       C  0.53424963  0.65602412  0.19068404     1.11600
O1020       O  0.64432756  0.73843648  0.22739763    -0.96700
Zr1021     Zr  0.60933083  0.71383518  0.23389607     1.88900
O1022       O  0.56870770  0.66066385  0.25349212    -0.73300
O1023       O  0.57809517  0.68834260  0.14613284    -0.52600
O1024       O  0.62571479  0.70728766  0.19538584    -0.97300
O1025       O  0.62853773  0.71516066  0.27480047    -0.54500
O1026       O  0.60018392  0.67906193  0.23667737    -0.73800
C1027       C  0.58524240  0.66258230  0.24467284     0.98500
O1028       O  0.52029085  0.66034111  0.26679255    -0.62700
O1029       O  0.56609502  0.74622480  0.31304663    -0.57500
O1030       O  0.55113071  0.67870293  0.30273343    -0.94100
O1031       O  0.56717957  0.71009538  0.32048372    -0.92600
O1032       O  0.52977812  0.73657374  0.26771354    -0.92900
O1033       O  0.50811592  0.70396893  0.23927211    -0.91700
C1034       C  0.55686391  0.69122081  0.32316326     1.17400
H1035       H  0.57461485  0.76116306  0.25539392     0.33300
H1036       H  0.53136560  0.68803707  0.20841068     0.44100
H1037       H  0.58904671  0.69981131  0.28608559     0.37700
H1038       H  0.61124319  0.73279476  0.18395877     0.34200
H1039       H  0.51249632  0.72496590  0.19386234     0.25900
H1040       H  0.57408646  0.69068937  0.12758301     0.31900
H1041       H  0.61474225  0.69691111  0.18420285     0.37800
H1042       H  0.54082499  0.74964865  0.27371476     0.32200
H1043       H  0.55253846  0.73476745  0.31569310     0.31100
H1044       H  0.60228870  0.74161227  0.33661383     0.32800
H1045       H  0.62100663  0.70186442  0.28362698     0.31800
H1046       H  0.50742496  0.69122797  0.24422972     0.35800
H1047       H  0.51697965  0.66876564  0.27859584     0.28500
H1048       H  0.62733306  0.79401383  0.18591674     0.32700
H1049       H  0.65176816  0.73143906  0.23158203     0.35600
H1050       H  0.57244671  0.74826618  0.33153636     0.28200
H1051       H  0.51194712  0.65780260  0.25004075     0.41100
H1052       H  0.53691242  0.69388272  0.13930997     0.31100
H1053       H  0.53048007  0.73002428  0.17425556     0.38700
H1054       H  0.62718202  0.72431763  0.28780781     0.30600
H1055       H  0.59278969  0.69591021  0.14579222     0.30700
H1056       H  0.63806480  0.78159918  0.19110487     0.30900
Zr1057     Zr  0.50732537  0.58369088  0.61677615     2.17500
O1058       O  0.50538942  0.55163938  0.62490583    -0.51400
O1059       O  0.47255508  0.56602230  0.63089996    -0.74600
O1060       O  0.51580352  0.57924794  0.66433778    -0.81400
O1061       O  0.50312860  0.57502195  0.53776501    -0.83200
O1062       O  0.53041361  0.60934116  0.68615037    -0.78800
O1063       O  0.50268670  0.56039638  0.57904008    -0.90400
O1064       O  0.45775576  0.58369053  0.61787617    -0.76400
O1065       O  0.49965667  0.60651595  0.63926857    -0.85900
O1066       O  0.49130766  0.59328269  0.58281429    -0.85600
O1067       O  0.53898629  0.61095450  0.63120001    -0.72300
O1068       O  0.53077054  0.59863016  0.57931132    -0.84500
Zr1069     Zr  0.53992963  0.65984896  0.58222262     2.26400
Zr1070     Zr  0.53099904  0.63396890  0.65343327     2.06300
Zr1071     Zr  0.51502486  0.60945471  0.54649523     2.10000
Zr1072     Zr  0.48444627  0.61659478  0.60466800     1.78800
O1073       O  0.53285045  0.60445245  0.50845700    -0.93300
O1074       O  0.46998206  0.62200149  0.64649425    -0.41100
O1075       O  0.50796787  0.63301614  0.56770056    -0.77700
O1076       O  0.51554524  0.64419911  0.61890287    -0.96400
O1077       O  0.55459326  0.64909369  0.61667117    -0.89700
O1078       O  0.54665813  0.63641840  0.55984434    -0.92500
C1079       C  0.45732407  0.56822395  0.62824512     1.01200
C1080       C  0.50100061  0.56032434  0.55236185     1.14100
C1081       C  0.52465360  0.59061603  0.68519962     1.04900
O1082       O  0.50947433  0.63359721  0.69061379    -0.94700
O1083       O  0.54031781  0.66896923  0.66058172    -0.90400
O1084       O  0.54736534  0.68460348  0.61836272    -0.83600
C1085       C  0.54572481  0.68441262  0.64501187     1.11600
O1086       O  0.57044637  0.60005578  0.59493309    -0.96700
Zr1087     Zr  0.56173982  0.62621233  0.59382961     1.88900
O1088       O  0.57645297  0.68082585  0.58160622    -0.73300
O1089       O  0.56073464  0.65053005  0.68216873    -0.52600
O1090       O  0.58628926  0.62929552  0.62789508    -0.97300
O1091       O  0.57870986  0.62887055  0.54993973    -0.54500
O1092       O  0.58803610  0.66042091  0.59537466    -0.73800
C1093       C  0.59047273  0.67762155  0.58949601     0.98500
O1094       O  0.53055706  0.68456007  0.56927134    -0.62700
O1095       O  0.48514265  0.59851523  0.51861374    -0.57500
O1096       O  0.54198309  0.66560354  0.53139992    -0.94100
O1097       O  0.52346726  0.63486648  0.51218150    -0.92600
O1098       O  0.46127486  0.60821188  0.56608043    -0.92900
O1099       O  0.47321676  0.64059872  0.59829615    -0.91700
C1100       C  0.53400139  0.65380763  0.51047291     1.17400
H1101       H  0.47940840  0.58195081  0.57569828     0.33300
H1102       H  0.51228150  0.65373208  0.62661668     0.44100
H1103       H  0.55536328  0.64224864  0.54403118     0.37700
H1104       H  0.54601506  0.60664762  0.64329048     0.34200
H1105       H  0.46944072  0.61214164  0.66011893     0.25900
H1106       H  0.55583508  0.65116994  0.70096657     0.31900
H1107       H  0.58332284  0.63473972  0.64470680     0.37800
H1108       H  0.44864971  0.59679130  0.57272284     0.32200
H1109       H  0.48434358  0.61069651  0.51512981     0.31100
H1110       H  0.52330001  0.59940562  0.49280851     0.32800
H1111       H  0.57417487  0.61497799  0.54421339     0.31800
H1112       H  0.48339595  0.65099329  0.58608216     0.35800
H1113       H  0.52156862  0.67886198  0.55310148     0.28500
H1114       H  0.49608300  0.54540292  0.64070382     0.32700
H1115       H  0.55862885  0.58838569  0.60299754     0.35600
H1116       H  0.48842999  0.59510149  0.50024261     0.28200
H1117       H  0.52164853  0.68406087  0.58440893     0.41100
H1118       H  0.51821954  0.63876933  0.70711198     0.31100
H1119       H  0.48036048  0.63500917  0.65383232     0.38700
H1120       H  0.59281621  0.63436823  0.55513484     0.30600
H1121       H  0.56549258  0.64087430  0.68404269     0.30700
H1122       H  0.51856185  0.55473423  0.63210307     0.30900
Zr1123     Zr  0.57030842  0.52582453  0.88285379     2.17500
O1124       O  0.54145817  0.52965599  0.87404299    -0.51400
O1125       O  0.55079264  0.49084220  0.87014911    -0.74600
O1126       O  0.56673291  0.53227121  0.83404552    -0.81400
O1127       O  0.56041804  0.52123905  0.96104364    -0.83200
O1128       O  0.59710394  0.54601342  0.81319981    -0.78800
O1129       O  0.54592927  0.52013530  0.91949031    -0.90400
O1130       O  0.56684808  0.47467438  0.88450267    -0.76400
O1131       O  0.59178052  0.51571345  0.86197434    -0.85900
O1132       O  0.57847700  0.50971847  0.91837648    -0.85600
O1133       O  0.59883383  0.55625673  0.86729874    -0.72300
O1134       O  0.58595058  0.55025280  0.91888072    -0.84500
Zr1135     Zr  0.64558711  0.55546244  0.91828824     2.26400
Zr1136     Zr  0.62051931  0.54576136  0.84687743     2.06300
Zr1137     Zr  0.59517804  0.53428622  0.95342978     2.10000
Zr1138     Zr  0.60025089  0.50021652  0.89803403     1.78800
O1139       O  0.59150246  0.55637893  0.98589970    -0.93300
O1140       O  0.60476972  0.48388593  0.85760833    -0.41100
O1141       O  0.61728979  0.52468872  0.93365537    -0.77700
O1142       O  0.62936387  0.53007594  0.88290110    -0.96400
O1143       O  0.63655637  0.57053896  0.88219431    -0.89700
O1144       O  0.62356817  0.56471101  0.93908480    -0.92500
C1145       C  0.55191126  0.47500738  0.87370739     1.01200
C1146       C  0.54561416  0.51841037  0.94618103     1.14100
C1147       C  0.57850985  0.54054144  0.81334535     1.04900
O1148       O  0.61721257  0.52093347  0.81297208    -0.94700
O1149       O  0.65479496  0.55330816  0.83950608    -0.90400
O1150       O  0.66986520  0.56105890  0.88194410    -0.83600
C1151       C  0.66999729  0.55895493  0.85538801     1.11600
O1152       O  0.59089564  0.59163999  0.90317356    -0.96700
Zr1153     Zr  0.61479801  0.57997875  0.90337123     1.88900
O1154       O  0.66747978  0.59204775  0.92032335    -0.73300
O1155       O  0.63854941  0.57307594  0.81416346    -0.52600
O1156       O  0.61779914  0.60257024  0.86597275    -0.97300
O1157       O  0.61822050  0.59856714  0.94595120    -0.54500
O1158       O  0.64943936  0.60501472  0.90190063    -0.73800
C1159       C  0.66575256  0.60660834  0.91046957     0.98500
O1160       O  0.67049253  0.54753406  0.93489184    -0.62700
O1161       O  0.58436336  0.50693319  0.98657745    -0.57500
O1162       O  0.65010091  0.55441345  0.96907928    -0.94100
O1163       O  0.61933144  0.54073646  0.98858214    -0.92600
O1164       O  0.58835229  0.47651565  0.93648281    -0.92900
O1165       O  0.62250303  0.48740793  0.90838795    -0.91700
C1166       C  0.63810313  0.54809063  0.99009217     1.17400
H1167       H  0.56676537  0.49827787  0.92575873     0.33300
H1168       H  0.63840265  0.52594521  0.87587236     0.44100
H1169       H  0.62981461  0.57360615  0.95459650     0.37700
H1170       H  0.59508149  0.56327182  0.85427882     0.34200
H1171       H  0.59878259  0.46971428  0.86309842     0.25900
H1172       H  0.63487960  0.56688800  0.79548774     0.31900
H1173       H  0.62535667  0.60031083  0.85121062     0.37800
H1174       H  0.58235379  0.46325974  0.92751629     0.32200
H1175       H  0.57595844  0.50894376  0.00022199     0.31100
H1176       H  0.59100219  0.55064994  0.00452180     0.32800
H1177       H  0.60499240  0.59143888  0.95494769     0.31800
H1178       H  0.63168999  0.49662138  0.92263032     0.35800
H1179       H  0.67015911  0.53763742  0.92153082     0.28500
H1180       H  0.53367485  0.51981574  0.85942685     0.32700
H1181       H  0.57784815  0.57945918  0.90053473     0.35600
H1182       H  0.57498509  0.49486833  0.97609869     0.28200
H1183       H  0.68345168  0.55972666  0.93165901     0.41100
H1184       H  0.62645972  0.52872951  0.79775212     0.31100
H1185       H  0.59557623  0.48394233  0.84339662     0.38700
H1186       H  0.61962855  0.61139469  0.93969984     0.30600
H1187       H  0.63207403  0.58127900  0.81550016     0.30700
H1188       H  0.54667322  0.54285038  0.86506366     0.30900
Zr1189     Zr  0.47224620  0.42742015  0.38100616     2.17500
O1190       O  0.47380226  0.45773662  0.36323877    -0.51400
O1191       O  0.50752172  0.44485033  0.37127986    -0.74600
O1192       O  0.47872815  0.45243173  0.41688100    -0.81400
O1193       O  0.44702658  0.39858194  0.31493270    -0.83200
O1194       O  0.47562317  0.43778026  0.45896297    -0.78800
O1195       O  0.46318273  0.42983361  0.33325521    -0.90400
O1196       O  0.52138647  0.42686909  0.38683633    -0.76400
O1197       O  0.48537733  0.41810499  0.41899546    -0.85900
O1198       O  0.48137049  0.40430141  0.36294418    -0.85600
O1199       O  0.44588073  0.41343483  0.41481586    -0.72300
O1200       O  0.44225563  0.39975011  0.36399367    -0.84500
Zr1201     Zr  0.43620730  0.35178016  0.41925675     2.26400
Zr1202     Zr  0.45895162  0.40275126  0.45189165     2.06300
Zr1203     Zr  0.45115829  0.37634316  0.34678526     2.10000
Zr1204     Zr  0.49365924  0.39452728  0.40177579     1.78800
O1205       O  0.42845916  0.35897739  0.30857197    -0.93300
O1206       O  0.51517899  0.40668481  0.44244201    -0.41100
O1207       O  0.46318372  0.36637978  0.38583827    -0.77700
O1208       O  0.46733849  0.37882393  0.43573080    -0.96400
O1209       O  0.42821024  0.37574568  0.43598412    -0.89700
O1210       O  0.42466035  0.36183902  0.37985402    -0.92500
C1211       C  0.52248741  0.44249025  0.37565030     1.01200
C1212       C  0.45306137  0.41734275  0.31405457     1.14100
C1213       C  0.47998170  0.45280543  0.44356766     1.04900
O1214       O  0.48532228  0.41057666  0.48543856    -0.94700
O1215       O  0.44766252  0.37920139  0.48907789    -0.90400
O1216       O  0.43254761  0.34803063  0.47060687    -0.83600
C1217       C  0.43832644  0.36027763  0.49135724     1.11600
O1218       O  0.40718381  0.41105011  0.38854052    -0.96700
Zr1219     Zr  0.41616473  0.38549893  0.39716787     1.88900
O1220       O  0.39955970  0.33225269  0.41998347    -0.73300
O1221       O  0.43840948  0.40994430  0.48278835    -0.52600
O1222       O  0.39716182  0.38768639  0.43601847    -0.97300
O1223       O  0.39601720  0.37828866  0.35525301    -0.54500
O1224       O  0.38851980  0.35240610  0.40289585    -0.73800
C1225       C  0.38572260  0.33559497  0.41158192     0.98500
O1226       O  0.44338091  0.32623070  0.43566449    -0.62700
O1227       O  0.47809521  0.38060544  0.31618681    -0.57500
O1228       O  0.43043222  0.32595585  0.38551760    -0.94100
O1229       O  0.44173418  0.34119716  0.34347504    -0.92600
O1230       O  0.50890755  0.38431993  0.36586967    -0.92900
O1231       O  0.50537798  0.37236716  0.41784596    -0.91700
C1232       C  0.43438204  0.32583595  0.35953984     1.17400
H1233       H  0.49101295  0.41013433  0.34811918     0.33300
H1234       H  0.47201974  0.37425285  0.45111452     0.44100
H1235       H  0.41354482  0.35062847  0.37105330     0.37700
H1236       H  0.44274933  0.42334817  0.42130169     0.34200
H1237       H  0.52850793  0.41012274  0.43544613     0.25900
H1238       H  0.44675007  0.41611313  0.49943507     0.31900
H1239       H  0.40564721  0.40116430  0.44383709     0.37800
H1240       H  0.51360244  0.39491791  0.35154713     0.32200
H1241       H  0.47616421  0.36704623  0.31393647     0.31100
H1242       H  0.43712654  0.36125104  0.29223149     0.32800
H1243       H  0.39640134  0.36693282  0.34644147     0.31800
H1244       H  0.49347392  0.36081555  0.42594516     0.35800
H1245       H  0.45449057  0.33314323  0.44896582     0.28500
H1246       H  0.48678693  0.46892952  0.36926723     0.32700
H1247       H  0.39247947  0.40391060  0.38836411     0.35600
H1248       H  0.47477901  0.38389146  0.29776107     0.28200
H1249       H  0.43183587  0.31710190  0.44726497     0.41100
H1250       H  0.48266844  0.41737179  0.50091566     0.31100
H1251       H  0.51632502  0.41971907  0.44674594     0.38700
H1252       H  0.40391844  0.38964405  0.34257914     0.30600
H1253       H  0.43746139  0.42091745  0.47370942     0.30700
H1254       H  0.46373020  0.45930124  0.37385428     0.30900
Zr1255     Zr  0.41043654  0.48556726  0.11382980     2.17500
O1256       O  0.43704348  0.47907916  0.12685334    -0.51400
O1257       O  0.43041167  0.51996053  0.12918632    -0.74600
O1258       O  0.43522279  0.49404385  0.07667167    -0.81400
O1259       O  0.38203940  0.45805495  0.17900899    -0.83200
O1260       O  0.42162000  0.49680225  0.03630606    -0.78800
O1261       O  0.41313936  0.47494931  0.16037272    -0.90400
O1262       O  0.41444437  0.53646060  0.11590304    -0.76400
O1263       O  0.40272412  0.50419805  0.08195224    -0.85900
O1264       O  0.38835068  0.49357517  0.13782243    -0.85600
O1265       O  0.39535477  0.46347789  0.07510499    -0.72300
O1266       O  0.38166335  0.45440870  0.12577684    -0.84500
Zr1267     Zr  0.33600298  0.45892209  0.07795971     2.26400
Zr1268     Zr  0.38677028  0.48210487  0.04397105     2.06300
Zr1269     Zr  0.35939574  0.46252493  0.14910215     2.10000
Zr1270     Zr  0.38030929  0.51165646  0.10537904     1.78800
O1271       O  0.34147493  0.43214220  0.17650096    -0.93300
O1272       O  0.38870007  0.53769193  0.07076628    -0.41100
O1273       O  0.35112620  0.48080054  0.11699175    -0.77700
O1274       O  0.36444848  0.49050801  0.06616906    -0.96400
O1275       O  0.35810552  0.45088917  0.05459969    -0.89700
O1276       O  0.34402788  0.44087180  0.11055051    -0.92500
C1277       C  0.42945074  0.53590109  0.12591712     1.01200
C1278       C  0.40075198  0.46424066  0.17934851     1.14100
C1279       C  0.43601350  0.49796837  0.05050370     1.04900
O1280       O  0.39849960  0.51108771  0.01371458    -0.94700
O1281       O  0.36309889  0.47795760  0.00914582    -0.90400
O1282       O  0.33202793  0.46066130  0.02767445    -0.83600
C1283       C  0.34421263  0.46908387  0.00732140     1.11600
O1284       O  0.38716713  0.41838386  0.09526627    -0.96700
Zr1285     Zr  0.36605620  0.43287698  0.08703335     1.88900
O1286       O  0.31378732  0.42345276  0.06941044    -0.73300
O1287       O  0.39151157  0.46255762  0.00811322    -0.52600
O1288       O  0.37364243  0.42180940  0.04355316    -0.97300
O1289       O  0.35329411  0.40596783  0.12121836    -0.54500
O1290       O  0.33324553  0.40916294  0.07005218    -0.73800
C1291       C  0.31653116  0.40847714  0.06699973     0.98500
O1292       O  0.31426893  0.47211970  0.06593698    -0.62700
O1293       O  0.36197561  0.48355958  0.18843979    -0.57500
O1294       O  0.31028279  0.44929307  0.11323758    -0.94100
O1295       O  0.32491939  0.45434745  0.15583682    -0.92600
O1296       O  0.37721630  0.52468597  0.15008880    -0.92900
O1297       O  0.35732102  0.52439872  0.10393561    -0.91700
C1298       C  0.30987362  0.44964285  0.13997358     1.17400
H1299       H  0.39445687  0.50125560  0.15441804     0.33300
H1300       H  0.36059615  0.49753770  0.05327413     0.44100
H1301       H  0.33230629  0.42900034  0.11694138     0.37700
H1302       H  0.40466728  0.46029295  0.06652936     0.34200
H1303       H  0.39406804  0.55017547  0.08164285     0.25900
H1304       H  0.39912607  0.47224782  0.99321474     0.31900
H1305       H  0.36063342  0.41301778  0.03473627     0.37800
H1306       H  0.38728617  0.53903198  0.14952540     0.32200
H1307       H  0.35135293  0.48687950  0.18541579     0.31100
H1308       H  0.34058591  0.43672001  0.19541287     0.32800
H1309       H  0.33868035  0.40001398  0.12087280     0.31800
H1310       H  0.34780512  0.51663534  0.08900869     0.35800
H1311       H  0.31290453  0.47820163  0.08332172     0.28500
H1312       H  0.44961889  0.49167848  0.12347651     0.32700
H1313       H  0.37985476  0.40476394  0.08741238     0.35600
H1314       H  0.35741835  0.47447926  0.20470149     0.28200
H1315       H  0.32236741  0.48370799  0.05371812     0.41100
H1316       H  0.40225623  0.50716874  0.99609895     0.31100
H1317       H  0.40037067  0.53876336  0.06083080     0.38700
H1318       H  0.35732417  0.41280505  0.13944386     0.30600
H1319       H  0.40099529  0.45889628  0.01610865     0.30700
H1320       H  0.43678762  0.46964959  0.11272932     0.30900
Zr1321     Zr  0.16964143  0.27404973  0.45448814     2.17500
O1322       O  0.17260575  0.30555206  0.46939928    -0.51400
O1323       O  0.13567295  0.25816464  0.47139646    -0.74600
O1324       O  0.15987064  0.28963901  0.41814003    -0.81400
O1325       O  0.19907131  0.27468049  0.51814061    -0.83200
O1326       O  0.15535179  0.27233986  0.37808075    -0.78800
O1327       O  0.18129807  0.28823209  0.50036643    -0.90400
O1328       O  0.12006651  0.22589819  0.45731152    -0.76400
O1329       O  0.15196713  0.24810829  0.42171491    -0.85900
O1330       O  0.16300586  0.24389545  0.47721468    -0.85600
O1331       O  0.19164293  0.28262259  0.41512102    -0.72300
O1332       O  0.20149146  0.27811199  0.46573729    -0.84500
Zr1333     Zr  0.20001495  0.23003633  0.41546018     2.26400
Zr1334     Zr  0.17412214  0.25564145  0.38333360     2.06300
Zr1335     Zr  0.19484272  0.24773234  0.48767225     2.10000
Zr1336     Zr  0.14589756  0.21824658  0.44373855     1.78800
O1337       O  0.22618036  0.26004903  0.51234864    -0.93300
O1338       O  0.11945942  0.20136450  0.40969847    -0.41100
O1339       O  0.17765995  0.22169867  0.45452077    -0.77700
O1340       O  0.16754521  0.22504787  0.40429059    -0.96400
O1341       O  0.20610348  0.26010408  0.39359786    -0.89700
O1342       O  0.21673312  0.25573788  0.44900071    -0.92500
C1343       C  0.12011818  0.24105180  0.46827216     1.01200
C1344       C  0.19254905  0.28699873  0.51883771     1.14100
C1345       C  0.15446403  0.28570434  0.39257095     1.04900
O1346       O  0.14647530  0.23426590  0.35309116    -0.94700
O1347       O  0.18476145  0.24193844  0.34678224    -0.90400
O1348       O  0.20093468  0.22675096  0.36458186    -0.83600
C1349       C  0.19425922  0.23247608  0.34412313     1.11600
O1350       O  0.23194451  0.32055783  0.43207918    -0.96700
Zr1351     Zr  0.22309822  0.28578714  0.42665123     1.88900
O1352       O  0.23588021  0.24525637  0.40809295    -0.73300
O1353       O  0.18948160  0.28239463  0.34919026    -0.52600
O1354       O  0.23587717  0.30337523  0.38268449    -0.97300
O1355       O  0.24920658  0.30278926  0.46116389    -0.54500
O1356       O  0.24910045  0.27871817  0.41359640    -0.73800
C1357       C  0.25054046  0.26322626  0.40860333     0.98500
O1358       O  0.18929257  0.19563604  0.40278754    -0.62700
O1359       O  0.17602822  0.22994187  0.52885346    -0.57500
O1360       O  0.20992751  0.21372612  0.45002757    -0.94100
O1361       O  0.20186465  0.22052231  0.49269726    -0.92600
O1362       O  0.13301410  0.19979573  0.48701623    -0.92900
O1363       O  0.13513269  0.18314586  0.43700109    -0.91700
C1364       C  0.20792428  0.21140966  0.47654829     1.17400
H1365       H  0.15527359  0.24162164  0.49398740     0.33300
H1366       H  0.16116978  0.21435833  0.39095871     0.44100
H1367       H  0.22880549  0.25639192  0.45545605     0.37700
H1368       H  0.19402233  0.29497433  0.40677463     0.34200
H1369       H  0.10721445  0.19382728  0.42093051     0.25900
H1370       H  0.20307791  0.28458566  0.34671588     0.31900
H1371       H  0.25039700  0.30869513  0.38345993     0.37800
H1372       H  0.11870020  0.19074655  0.48343576     0.32200
H1373       H  0.16902359  0.21574064  0.52331618     0.31100
H1374       H  0.22242041  0.25405807  0.53115245     0.32800
H1375       H  0.25376187  0.29326018  0.46578984     0.31800
H1376       H  0.14761021  0.18271967  0.43525735     0.35800
H1377       H  0.18065496  0.18757687  0.41836977     0.28500
H1378       H  0.15995372  0.30494338  0.46435776     0.32700
H1379       H  0.24621575  0.32844699  0.42723180     0.35600
H1380       H  0.18617357  0.23111335  0.54235466     0.28200
H1381       H  0.17998664  0.19253559  0.38704906     0.41100
H1382       H  0.14801330  0.24264396  0.33664812     0.31100
H1383       H  0.11803059  0.21213751  0.40087618     0.38700
H1384       H  0.24216141  0.30319312  0.47813444     0.30600
H1385       H  0.18266811  0.27631461  0.33145741     0.30700
H1386       H  0.18272483  0.31578857  0.45696219     0.30900
Zr1387     Zr  0.23452058  0.39788067  0.71915752     2.17500
O1388       O  0.20699128  0.36563544  0.70486649    -0.51400
O1389       O  0.21389886  0.41212016  0.70629977    -0.74600
O1390       O  0.21024963  0.38049072  0.75681485    -0.81400
O1391       O  0.26320363  0.39924198  0.65382061    -0.83200
O1392       O  0.22457138  0.39575893  0.79750252    -0.78800
O1393       O  0.23215746  0.38455415  0.67271762    -0.90400
O1394       O  0.22999342  0.44498343  0.71758795    -0.76400
O1395       O  0.24218211  0.42339641  0.75221269    -0.85900
O1396       O  0.25577273  0.42876211  0.69589364    -0.85600
O1397       O  0.25055421  0.39042720  0.75626700    -0.72300
O1398       O  0.26359895  0.39684692  0.70467915    -0.84500
Zr1399     Zr  0.30929169  0.44600909  0.75332717     2.26400
Zr1400     Zr  0.25911236  0.41700187  0.78846702     2.06300
Zr1401     Zr  0.28511650  0.42793081  0.68228311     2.10000
Zr1402     Zr  0.26386671  0.45404750  0.72982429     1.78800
O1403       O  0.30416210  0.41996859  0.64967383    -0.93300
O1404       O  0.25300397  0.46772879  0.76712945    -0.41100
O1405       O  0.29324910  0.45337018  0.71610522    -0.77700
O1406       O  0.28083465  0.44839610  0.76736854    -0.96400
O1407       O  0.28770352  0.41506137  0.77535770    -0.89700
O1408       O  0.30136149  0.42092409  0.71904160    -0.92500
C1409       C  0.21477572  0.42904325  0.70880211     1.01200
C1410       C  0.24456266  0.38630781  0.65373006     1.14100
C1411       C  0.20985554  0.38299189  0.78327752     1.04900
O1412       O  0.24894358  0.43684074  0.81584723    -0.94700
O1413       O  0.28335652  0.43429970  0.82346727    -0.90400
O1414       O  0.31395539  0.45171350  0.80360297    -0.83600
C1415       C  0.30208498  0.44591683  0.82463123     1.11600
O1416       O  0.25651600  0.35487731  0.73267672    -0.96700
Zr1417     Zr  0.27986761  0.39002695  0.74134128     1.88900
O1418       O  0.33153021  0.43276637  0.76130446    -0.73300
O1419       O  0.25359214  0.39320167  0.82546275    -0.52600
O1420       O  0.27694922  0.36994415  0.78205432    -0.97300
O1421       O  0.29137016  0.37711878  0.70370129    -0.54500
O1422       O  0.31305977  0.39911813  0.75610699    -0.73800
C1423       C  0.32931355  0.41519068  0.76138406     0.98500
O1424       O  0.33221322  0.48115044  0.76309166    -0.62700
O1425       O  0.27927850  0.44581854  0.64514393    -0.57500
O1426       O  0.33469081  0.46322081  0.71821225    -0.94100
O1427       O  0.31940864  0.45555367  0.67595707    -0.92600
O1428       O  0.26826566  0.47336765  0.68775280    -0.92900
O1429       O  0.28583073  0.48976647  0.73536081    -0.91700
C1430       C  0.33471546  0.46530715  0.69171177     1.17400
H1431       H  0.24921958  0.43052674  0.67995643     0.33300
H1432       H  0.28477243  0.45894575  0.78087957     0.44100
H1433       H  0.31317743  0.42126415  0.71190021     0.37700
H1434       H  0.24157115  0.37773507  0.76478315     0.34200
H1435       H  0.24876976  0.47632925  0.75758712     0.25900
H1436       H  0.26673456  0.39442053  0.82871405     0.31900
H1437       H  0.26518615  0.36844636  0.79220969     0.37800
H1438       H  0.28157542  0.47675955  0.68070726     0.32200
H1439       H  0.29195641  0.45261689  0.63470006     0.31100
H1440       H  0.30207716  0.42449077  0.63134487     0.32800
H1441       H  0.30574482  0.38672155  0.70180747     0.31800
H1442       H  0.29867504  0.49113237  0.74115344     0.35800
H1443       H  0.33024561  0.48845865  0.74763578     0.28500
H1444       H  0.19475607  0.36623733  0.70861049     0.32700
H1445       H  0.26422143  0.34795726  0.73520365     0.35600
H1446       H  0.26993734  0.43528738  0.63236051     0.28200
H1447       H  0.32669228  0.48447741  0.77948334     0.41100
H1448       H  0.24501762  0.43006209  0.83414811     0.31100
H1449       H  0.24047289  0.45629077  0.77400337     0.38700
H1450       H  0.28539276  0.37906428  0.68663742     0.30600
H1451       H  0.25105905  0.39891988  0.84236703     0.30700
H1452       H  0.20669646  0.35582726  0.71836392     0.30900
Zr1453     Zr  0.26097862  0.18828771  0.04969501     2.17500
O1454       O  0.29024115  0.18798040  0.03174880    -0.51400
O1455       O  0.24294998  0.15296970  0.03850857    -0.74600
O1456       O  0.27857174  0.18043670  0.08550640    -0.81400
O1457       O  0.25823864  0.21456650  0.98440865    -0.83200
O1458       O  0.26858756  0.18538501  0.12773717    -0.78800
O1459       O  0.27295587  0.19786664  0.00206096    -0.90400
O1460       O  0.21171505  0.13888579  0.05630423    -0.76400
O1461       O  0.23879285  0.17515878  0.08807805    -0.85900
O1462       O  0.22878308  0.17890918  0.03178424    -0.85600
O1463       O  0.27321392  0.21490313  0.08327054    -0.72300
O1464       O  0.26295880  0.21838697  0.03330297    -0.84500
Zr1465     Zr  0.22053586  0.22336204  0.08786105     2.26400
Zr1466     Zr  0.24989790  0.20177326  0.12080066     2.06300
Zr1467     Zr  0.23087819  0.20905514  0.01540018     2.10000
Zr1468     Zr  0.20689297  0.16637335  0.07081198     1.78800
O1469       O  0.23470917  0.23205135  0.97805526    -0.93300
O1470       O  0.19672286  0.14367293  0.11046345    -0.41100
O1471       O  0.20873553  0.19655064  0.05426379    -0.77700
O1472       O  0.21751540  0.19262683  0.10461037    -0.96400
O1473       O  0.25256610  0.23229174  0.10522203    -0.89700
O1474       O  0.24221318  0.23540444  0.04849401    -0.92500
C1475       C  0.22585871  0.13790643  0.04392122     1.01200
C1476       C  0.27100696  0.20859589  0.98330379     1.14100
C1477       C  0.27827555  0.17985530  0.11227578     1.04900
O1478       O  0.23450166  0.17633224  0.15674269    -0.94700
O1479       O  0.23505252  0.21115413  0.15706684    -0.90400
O1480       O  0.21942944  0.22679605  0.13893352    -0.83600
C1481       C  0.22515534  0.22018829  0.15954868     1.11600
O1482       O  0.30923091  0.25597423  0.05815143    -0.96700
Zr1483     Zr  0.27425493  0.24463284  0.06635918     1.88900
O1484       O  0.23584091  0.25999322  0.08693105    -0.73300
O1485       O  0.27848347  0.22381993  0.14932421    -0.52600
O1486       O  0.29437456  0.26204307  0.10676906    -0.97300
O1487       O  0.28919142  0.26453006  0.02461453    -0.54500
O1488       O  0.26713902  0.27164769  0.07013206    -0.73800
C1489       C  0.25265901  0.27405081  0.07777924     0.98500
O1490       O  0.18705273  0.21313741  0.10440235    -0.62700
O1491       O  0.20996146  0.18253090  0.98316435    -0.57500
O1492       O  0.20105235  0.22954359  0.05410151    -0.94100
O1493       O  0.20400605  0.21682971  0.01272916    -0.92600
O1494       O  0.18204857  0.14950632  0.03470503    -0.92900
O1495       O  0.17364301  0.15665724  0.08737431    -0.91700
C1496       C  0.19642711  0.22475282  0.02850969     1.17400
H1497       H  0.22502630  0.16928432  0.01692647     0.33300
H1498       H  0.20824464  0.18775801  0.11999114     0.44100
H1499       H  0.24184738  0.24628169  0.03935055     0.37700
H1500       H  0.28626575  0.21814974  0.08959748     0.34200
H1501       H  0.20714172  0.13993137  0.11222466     0.25900
H1502       H  0.27381650  0.23098081  0.16146914     0.31900
H1503       H  0.28784977  0.26902002  0.11505037     0.37800
H1504       H  0.18900530  0.14665649  0.01967706     0.32200
H1505       H  0.19625650  0.17784729  0.98978800     0.31100
H1506       H  0.23489363  0.22537623  0.96057418     0.32800
H1507       H  0.28135862  0.27114208  0.02066616     0.31800
H1508       H  0.17041585  0.16620729  0.07840448     0.35800
H1509       H  0.17810798  0.20386884  0.09000034     0.28500
H1510       H  0.28823881  0.17461148  0.03622228     0.32700
H1511       H  0.30921945  0.24512031  0.04724199     0.35600
H1512       H  0.21087883  0.18938576  0.96536709     0.28200
H1513       H  0.18486697  0.20436092  0.12060515     0.41100
H1514       H  0.24425013  0.18096706  0.17214897     0.31100
H1515       H  0.19864035  0.15210986  0.12694410     0.38700
H1516       H  0.28560593  0.25469274  0.00941265     0.30600
H1517       H  0.28041515  0.21493151  0.16217755     0.30700
H1518       H  0.30145519  0.19734008  0.04359641     0.30900
Zr1519     Zr  0.38492384  0.25233274  0.78548616     2.17500
O1520       O  0.35528581  0.22242335  0.80177774    -0.51400
O1521       O  0.40131650  0.23359484  0.79718328    -0.74600
O1522       O  0.36752784  0.22804013  0.74840699    -0.81400
O1523       O  0.38527890  0.27984324  0.85125266    -0.83200
O1524       O  0.38136890  0.24255460  0.70705537    -0.78800
O1525       O  0.37166479  0.24881896  0.83247004    -0.90400
O1526       O  0.43338182  0.25108470  0.78266824    -0.76400
O1527       O  0.40936394  0.26159435  0.74989908    -0.85900
O1528       O  0.41606764  0.27480846  0.80663130    -0.85600
O1529       O  0.37458231  0.26723692  0.75005209    -0.72300
O1530       O  0.38181463  0.27995852  0.80139466    -0.84500
Zr1531     Zr  0.42675532  0.32813535  0.75006318     2.26400
Zr1532     Zr  0.40004813  0.27755986  0.71544309     2.06300
Zr1533     Zr  0.41309345  0.30264512  0.82181379     2.10000
Zr1534     Zr  0.44012704  0.28480355  0.77033265     1.78800
O1535       O  0.40523532  0.31956322  0.85811093    -0.93300
O1536       O  0.45615429  0.27684649  0.73277582    -0.41100
O1537       O  0.43717563  0.31290522  0.78528769    -0.77700
O1538       O  0.43143170  0.30104012  0.73454379    -0.96400
O1539       O  0.39584062  0.30472981  0.73006083    -0.89700
O1540       O  0.40326832  0.31793145  0.78718126    -0.92500
C1541       C  0.41844918  0.23542997  0.79310206     1.01200
C1542       C  0.37296874  0.26099703  0.85159971     1.14100
C1543       C  0.36959268  0.22762301  0.72190167     1.04900
O1544       O  0.42134899  0.27170427  0.68425523    -0.94700
O1545       O  0.41208137  0.30231614  0.67986988    -0.90400
O1546       O  0.42740002  0.33321659  0.69917394    -0.83600
C1547       C  0.42116889  0.32125543  0.67815124     1.11600
O1548       O  0.33729993  0.26985065  0.77044484    -0.96700
Zr1549     Zr  0.37221948  0.29531042  0.76646798     1.88900
O1550       O  0.41149193  0.34935248  0.74897161    -0.73300
O1551       O  0.37424834  0.26766507  0.68023472    -0.52600
O1552       O  0.35455689  0.29546446  0.72462770    -0.97300
O1553       O  0.35524693  0.29984779  0.80613759    -0.54500
O1554       O  0.37967836  0.32962278  0.76378314    -0.73800
C1555       C  0.39447650  0.34657038  0.75701763     0.98500
O1556       O  0.46023117  0.35260856  0.73518863    -0.62700
O1557       O  0.43391909  0.29829573  0.85571984    -0.57500
O1558       O  0.44428038  0.35348986  0.78535039    -0.94100
O1559       O  0.43851702  0.33775142  0.82728978    -0.92600
O1560       O  0.46156648  0.29185109  0.81069712    -0.92900
O1561       O  0.47486323  0.30857382  0.76055868    -0.91700
C1562       C  0.44707459  0.35334290  0.81169140     1.17400
H1563       H  0.41893878  0.26857305  0.82201239     0.33300
H1564       H  0.44144356  0.30580406  0.72008141     0.44100
H1565       H  0.40323251  0.32901990  0.79621802     0.37700
H1566       H  0.36189968  0.25761563  0.74232585     0.34200
H1567       H  0.46025179  0.26780249  0.74124787     0.25900
H1568       H  0.37261667  0.27945016  0.67762066     0.31900
H1569       H  0.36407120  0.30754188  0.71421781     0.37800
H1570       H  0.45536653  0.27939678  0.82175730     0.32200
H1571       H  0.44390842  0.31199372  0.86133095     0.31100
H1572       H  0.41377707  0.32054137  0.87400858     0.32800
H1573       H  0.35056227  0.30888987  0.79944151     0.31800
H1574       H  0.47584125  0.32178244  0.76210584     0.35800
H1575       H  0.46904133  0.35192150  0.74949103     0.28500
H1576       H  0.35706211  0.21108218  0.79627987     0.32700
H1577       H  0.32974619  0.27691138  0.76772536     0.35600
H1578       H  0.42531248  0.29260837  0.87230990     0.28200
H1579       H  0.46279872  0.34683123  0.71839148     0.41100
H1580       H  0.41311947  0.26546998  0.66754243     0.31100
H1581       H  0.44524801  0.26825154  0.71997434     0.38700
H1582       H  0.36598449  0.30797002  0.81947448     0.30600
H1583       H  0.38043481  0.26668645  0.66270275     0.30700
H1584       H  0.34422761  0.22121291  0.79014278     0.30900
Zr1585     Zr  0.50533849  0.94167472  0.11955345     2.17500
O1586       O  0.50810663  0.97288757  0.13545189    -0.51400
O1587       O  0.47013447  0.92611677  0.13000776    -0.74600
O1588       O  0.49937075  0.96012452  0.08239468    -0.81400
O1589       O  0.53074533  0.93916538  0.18611651    -0.83200
O1590       O  0.50297509  0.94833427  0.04082859    -0.78800
O1591       O  0.51479590  0.95417311  0.16678902    -0.90400
O1592       O  0.45452761  0.89454288  0.11312321    -0.76400
O1593       O  0.48967892  0.91743448  0.08405579    -0.85900
O1594       O  0.49534059  0.91007948  0.14107006    -0.85600
O1595       O  0.53065886  0.95103350  0.08460583    -0.72300
O1596       O  0.53503624  0.94283203  0.13595807    -0.84500
Zr1597     Zr  0.53537815  0.89611090  0.08534634     2.26400
Zr1598     Zr  0.51491200  0.92578351  0.04988693     2.06300
Zr1599     Zr  0.52521216  0.91115961  0.15675969     2.10000
Zr1600     Zr  0.48042187  0.88612792  0.10483187     1.78800
O1601       O  0.55074042  0.91890637  0.19174937    -0.93300
O1602       O  0.45744038  0.87059747  0.06625965    -0.41100
O1603       O  0.51013129  0.88684102  0.12073479    -0.77700
O1604       O  0.50494730  0.89375842  0.06920852    -0.96400
O1605       O  0.54493133  0.92761668  0.06526131    -0.89700
O1606       O  0.55015001  0.91982010  0.12191889    -0.92500
C1607       C  0.45448649  0.90958624  0.12422123     1.01200
C1608       C  0.52508594  0.95218069  0.18611053     1.14100
C1609       C  0.49902451  0.95961258  0.05557233     1.04900
O1610       O  0.48639845  0.90841522  0.01926079    -0.94700
O1611       O  0.52277220  0.90895858  0.01485289    -0.90400
O1612       O  0.53715209  0.89256797  0.03462551    -0.83600
C1613       C  0.53099725  0.89826089  0.01349381     1.11600
O1614       O  0.57279087  0.98710157  0.10522202    -0.96700
Zr1615     Zr  0.55992643  0.95134604  0.10133647     1.88900
O1616       O  0.57128555  0.91039646  0.08022212    -0.73300
O1617       O  0.53580430  0.94965521  0.01442106    -0.52600
O1618       O  0.57759468  0.96970604  0.05972844    -0.97300
O1619       O  0.58105067  0.96561735  0.14214065    -0.54500
O1620       O  0.58557961  0.94303993  0.09264749    -0.73800
C1621       C  0.58641290  0.92768104  0.08475820     0.98500
O1622       O  0.52439818  0.86173007  0.07223067    -0.62700
O1623       O  0.50055140  0.89102227  0.19185000    -0.57500
O1624       O  0.54394319  0.87934227  0.12072053    -0.94100
O1625       O  0.53373072  0.88479790  0.16262720    -0.92600
O1626       O  0.46297332  0.86673302  0.14582579    -0.92900
O1627       O  0.46790185  0.85063145  0.09855167    -0.91700
C1628       C  0.54094903  0.87642366  0.14700288     1.17400
H1629       H  0.48623182  0.90754474  0.15629564     0.33300
H1630       H  0.49918349  0.88371545  0.05487082     0.44100
H1631       H  0.56133654  0.91947770  0.13007258     0.37700
H1632       H  0.53449893  0.96401312  0.07703424     0.34200
H1633       H  0.44406192  0.86486189  0.07472020     0.25900
H1634       H  0.52672938  0.94765135  0.99873838     0.31900
H1635       H  0.57620346  0.95947205  0.04615539     0.37800
H1636       H  0.47222030  0.86294752  0.15434126     0.32200
H1637       H  0.50800394  0.88800409  0.20588904     0.31100
H1638       H  0.54367330  0.91569333  0.20984012     0.32800
H1639       H  0.58411478  0.95527801  0.14844979     0.31800
H1640       H  0.47989035  0.84959960  0.09482469     0.35800
H1641       H  0.51715423  0.85364211  0.08868876     0.28500
H1642       H  0.49540496  0.97217823  0.13044025     0.32700
H1643       H  0.58743292  0.99326456  0.10455946     0.35600
H1644       H  0.49730671  0.90036651  0.20140844     0.28200
H1645       H  0.51382837  0.85834090  0.05825556     0.41100
H1646       H  0.49107856  0.91495222  0.00090890     0.31100
H1647       H  0.45882536  0.88187972  0.05488796     0.38700
H1648       H  0.57216873  0.96585830  0.15675845     0.30600
H1649       H  0.53943635  0.96292991  0.02199017     0.30700
H1650       H  0.51823192  0.98339631  0.12331881     0.30900
Zr1651     Zr  0.56987543  0.06734278  0.38072620     2.17500
O1652       O  0.54244916  0.03410761  0.37024542    -0.51400
O1653       O  0.55127717  0.08290685  0.36501306    -0.74600
O1654       O  0.54414048  0.05383335  0.41720788    -0.81400
O1655       O  0.59834600  0.06648505  0.31691818    -0.83200
O1656       O  0.55868572  0.06688528  0.45880696    -0.78800
O1657       O  0.56697357  0.05457403  0.33365757    -0.90400
O1658       O  0.56837299  0.11535763  0.37828972    -0.76400
O1659       O  0.57863753  0.09327164  0.41351779    -0.85900
O1660       O  0.59300563  0.09759200  0.35771376    -0.85600
O1661       O  0.58379453  0.05863375  0.41916064    -0.72300
O1662       O  0.59769333  0.06353188  0.36829070    -0.84500
Zr1663     Zr  0.64468047  0.11153440  0.41808629     2.26400
Zr1664     Zr  0.59363472  0.08565246  0.45105274     2.06300
Zr1665     Zr  0.62113070  0.09404639  0.34624612     2.10000
Zr1666     Zr  0.60195587  0.12323823  0.39133842     1.78800
O1667       O  0.63841110  0.08316961  0.31468057    -0.93300
O1668       O  0.59098653  0.13874344  0.42587875    -0.41100
O1669       O  0.63035845  0.12003644  0.37964622    -0.77700
O1670       O  0.61726259  0.11640695  0.43016876    -0.96400
O1671       O  0.62108328  0.08132431  0.43972799    -0.89700
O1672       O  0.63559246  0.08585906  0.38426842    -0.92500
C1673       C  0.55298518  0.10011373  0.36825582     1.01200
C1674       C  0.57943020  0.05496837  0.31570595     1.14100
C1675       C  0.54364522  0.05589072  0.44376329     1.04900
O1676       O  0.58541899  0.10739367  0.47741529    -0.94700
O1677       O  0.61747085  0.09995350  0.48733589    -0.90400
O1678       O  0.64865173  0.11557605  0.46900711    -0.83600
C1679       C  0.63631378  0.10985167  0.48959704     1.11600
O1680       O  0.58922745  0.02029211  0.39883908    -0.96700
Zr1681     Zr  0.61210126  0.05568555  0.40648730     1.88900
O1682       O  0.66515088  0.09621217  0.42649739    -0.73300
O1683       O  0.58638898  0.06197822  0.48890563    -0.52600
O1684       O  0.60410537  0.03529391  0.44835530    -0.97300
O1685       O  0.62249948  0.04088988  0.37003581    -0.54500
O1686       O  0.64413999  0.06272535  0.42412069    -0.73800
C1687       C  0.66123016  0.07805444  0.42844969     0.98500
O1688       O  0.66791215  0.14592178  0.43115500    -0.62700
O1689       O  0.61882285  0.11423921  0.30908261    -0.57500
O1690       O  0.67064936  0.12713538  0.38302959    -0.94100
O1691       O  0.65609854  0.11909444  0.34024932    -0.92600
O1692       O  0.60874262  0.14287909  0.34894172    -0.92900
O1693       O  0.62541132  0.15856074  0.39771265    -0.91700
C1694       C  0.67117676  0.12851432  0.35635475     1.17400
H1695       H  0.58723386  0.09987468  0.34130937     0.33300
H1696       H  0.62154777  0.12703220  0.44360628     0.44100
H1697       H  0.64696667  0.08509635  0.37775726     0.37700
H1698       H  0.57387510  0.04628570  0.42748593     0.34200
H1699       H  0.58557439  0.14578349  0.41489138     0.25900
H1700       H  0.57766521  0.06403728  0.50189289     0.31900
H1701       H  0.60888341  0.04491619  0.46395029     0.37800
H1702       H  0.59762026  0.14561930  0.34742210     0.32200
H1703       H  0.63105484  0.11874045  0.29791663     0.31100
H1704       H  0.64027449  0.09081677  0.29732095     0.32800
H1705       H  0.63596569  0.04378070  0.37545585     0.31800
H1706       H  0.63788396  0.15907909  0.40351923     0.35800
H1707       H  0.67047150  0.15378153  0.41383491     0.28500
H1708       H  0.53024196  0.03510856  0.37136390     0.32700
H1709       H  0.59671753  0.01344468  0.40365751     0.35600
H1710       H  0.60801884  0.10460054  0.29691623     0.28200
H1711       H  0.65998625  0.15000730  0.44270670     0.41100
H1712       H  0.58112060  0.10090979  0.49586610     0.31100
H1713       H  0.57917108  0.12751218  0.43466964     0.38700
H1714       H  0.62464069  0.04928324  0.35339546     0.30600
H1715       H  0.57773792  0.04868559  0.48064667     0.30700
H1716       H  0.54162745  0.02565743  0.38624561     0.30900
Zr1717     Zr  0.80502199  0.09193359  0.05064210     2.17500
O1718       O  0.80861268  0.12328144  0.03369713    -0.51400
O1719       O  0.83984854  0.10947095  0.03662015    -0.74600
O1720       O  0.81231705  0.11620012  0.08827317    -0.81400
O1721       O  0.77428311  0.06373721  0.98677776    -0.83200
O1722       O  0.81480350  0.10245328  0.12872959    -0.78800
O1723       O  0.79093616  0.09453145  0.00642584    -0.90400
O1724       O  0.85405050  0.09093387  0.04790303    -0.76400
O1725       O  0.82136252  0.08219872  0.08361628    -0.85900
O1726       O  0.81167137  0.06846619  0.02751811    -0.85600
O1727       O  0.78166458  0.07783673  0.08856414    -0.72300
O1728       O  0.77336579  0.06452456  0.03771713    -0.84500
Zr1729     Zr  0.77199939  0.01628573  0.08742873     2.26400
Zr1730     Zr  0.79815664  0.06734435  0.12074978     2.06300
Zr1731     Zr  0.77992585  0.04092549  0.01520455     2.10000
Zr1732     Zr  0.82713343  0.05816585  0.06146877     1.78800
O1733       O  0.75162416  0.02309087  0.98422682    -0.93300
O1734       O  0.85276985  0.06769776  0.09679726    -0.41100
O1735       O  0.79533912  0.03058576  0.04928261    -0.77700
O1736       O  0.80454976  0.04311424  0.09996914    -0.96400
O1737       O  0.76608797  0.04035499  0.10908025    -0.89700
O1738       O  0.75686077  0.02629199  0.05255172    -0.92500
C1739       C  0.85489846  0.10693797  0.03887402     1.01200
C1740       C  0.77991319  0.08241593  0.98738589     1.14100
C1741       C  0.81630742  0.11700547  0.11441124     1.04900
O1742       O  0.82684073  0.07718427  0.15075686    -0.94700
O1743       O  0.79089812  0.04321095  0.15626688    -0.90400
O1744       O  0.77023533  0.01250292  0.13852052    -0.83600
C1745       C  0.77928410  0.02450093  0.15884996     1.11600
O1746       O  0.74006152  0.07487040  0.07406026    -0.96700
Zr1747     Zr  0.75033079  0.04983320  0.07501938     1.88900
O1748       O  0.73563576  0.99559247  0.09111580    -0.73300
O1749       O  0.77916759  0.07283419  0.15660575    -0.52600
O1750       O  0.73439256  0.05052104  0.11844543    -0.97300
O1751       O  0.72798186  0.04545117  0.03665185    -0.54500
O1752       O  0.72328112  0.01599310  0.08074631    -0.73800
C1753       C  0.72120638  0.99886547  0.08628506     0.98500
O1754       O  0.77925756  0.99064646  0.10362100    -0.62700
O1755       O  0.80156430  0.04419030  0.97635102    -0.57500
O1756       O  0.76502794  0.99123198  0.05220018    -0.94100
O1757       O  0.77137170  0.00615034  0.00956264    -0.92600
O1758       O  0.84089112  0.05130986  0.02007027    -0.92900
O1759       O  0.83600052  0.03240872  0.06802799    -0.91700
C1760       C  0.76635924  0.99103796  0.02558557     1.17400
H1761       H  0.81991946  0.07431450  0.01127946     0.33300
H1762       H  0.81050106  0.03842987  0.11346935     0.44100
H1763       H  0.74519097  0.01519459  0.04459816     0.37700
H1764       H  0.77896650  0.08756178  0.09695876     0.34200
H1765       H  0.86538306  0.07326711  0.08623222     0.25900
H1766       H  0.78889627  0.08022715  0.17148998     0.31900
H1767       H  0.73450075  0.04013581  0.13035075     0.37800
H1768       H  0.84337583  0.06206693  0.00674330     0.32200
H1769       H  0.79365826  0.03212250  0.96493699     0.31100
H1770       H  0.75750758  0.02352496  0.96575808     0.32800
H1771       H  0.72477036  0.03253857  0.02817389     0.31800
H1772       H  0.82584330  0.02279200  0.08105299     0.35800
H1773       H  0.78684186  0.98888306  0.08839250     0.28500
H1774       H  0.82218252  0.13368836  0.03909249     0.32700
H1775       H  0.72552003  0.06746708  0.07719749     0.35600
H1776       H  0.80234720  0.05521049  0.96493388     0.28200
H1777       H  0.78920730  0.99697304  0.11861046     0.41100
H1778       H  0.82254594  0.07903323  0.16940596     0.31100
H1779       H  0.85336756  0.07935262  0.10621855     0.38700
H1780       H  0.73638779  0.05550590  0.02257577     0.30600
H1781       H  0.77593541  0.08263181  0.14851924     0.30700
H1782       H  0.79960402  0.12588911  0.04527501     0.30900
Zr1783     Zr  0.74013861  0.15359484  0.78572975     2.17500
O1784       O  0.76872292  0.15068087  0.80013825    -0.51400
O1785       O  0.75829924  0.18800671  0.80087765    -0.74600
O1786       O  0.76572866  0.16289171  0.74961326    -0.81400
O1787       O  0.71127278  0.12461830  0.84990997    -0.83200
O1788       O  0.75202497  0.16227055  0.70761129    -0.78800
O1789       O  0.74261316  0.14301742  0.83262822    -0.90400
O1790       O  0.74274298  0.20426875  0.78490650    -0.76400
O1791       O  0.73222006  0.17142243  0.75267025    -0.85900
O1792       O  0.71723585  0.16110394  0.80831718    -0.85600
O1793       O  0.72604599  0.13108539  0.74712964    -0.72300
O1794       O  0.71201920  0.12200189  0.79796473    -0.84500
Zr1795     Zr  0.66601475  0.12443492  0.74737049     2.26400
Zr1796     Zr  0.71723531  0.14890626  0.71477084     2.06300
Zr1797     Zr  0.68891024  0.12963430  0.81974947     2.10000
Zr1798     Zr  0.70885352  0.17825392  0.77460407     1.78800
O1799       O  0.67070284  0.10128170  0.85072923    -0.93300
O1800       O  0.71512996  0.20259121  0.73810719    -0.41100
O1801       O  0.68029589  0.14684302  0.78623541    -0.77700
O1802       O  0.69382890  0.15649394  0.73540622    -0.96400
O1803       O  0.68931720  0.11735056  0.72583327    -0.89700
O1804       O  0.67428708  0.10737934  0.78143293    -0.92500
C1805       C  0.75739038  0.20386336  0.79656818     1.01200
C1806       C  0.73013201  0.13164907  0.85112958     1.14100
C1807       C  0.76659985  0.16522545  0.72302429     1.04900
O1808       O  0.72821818  0.17926920  0.68773367    -0.94700
O1809       O  0.69306881  0.14009227  0.67845214    -0.90400
O1810       O  0.66185146  0.12372332  0.69664477    -0.83600
C1811       C  0.67416199  0.13069450  0.67611265     1.11600
O1812       O  0.72082081  0.08836852  0.76697623    -0.96700
Zr1813     Zr  0.69731414  0.10007402  0.75941842     1.88900
O1814       O  0.64482781  0.08876209  0.73890726    -0.73300
O1815       O  0.72537880  0.13222759  0.67837781    -0.52600
O1816       O  0.70235113  0.08562196  0.71729151    -0.97300
O1817       O  0.68535099  0.07429466  0.79527278    -0.54500
O1818       O  0.66509732  0.07548549  0.74204443    -0.73800
C1819       C  0.64825206  0.07418061  0.73745757     0.98500
O1820       O  0.64381994  0.13684583  0.73425190    -0.62700
O1821       O  0.69176787  0.15177586  0.85772445    -0.57500
O1822       O  0.63967501  0.11413902  0.78160771    -0.94100
O1823       O  0.65411890  0.12086210  0.82449883    -0.92600
O1824       O  0.70694461  0.19355240  0.81794545    -0.92900
O1825       O  0.68369749  0.18825301  0.77574262    -0.91700
C1826       C  0.63910241  0.11519982  0.80824568     1.17400
H1827       H  0.72302292  0.16906518  0.82480077     0.33300
H1828       H  0.68969100  0.16296168  0.72193859     0.44100
H1829       H  0.66262508  0.09541701  0.78771099     0.37700
H1830       H  0.73570743  0.12819843  0.73902393     0.34200
H1831       H  0.71643291  0.21439468  0.74800082     0.25900
H1832       H  0.71305764  0.11932033  0.67556890     0.31900
H1833       H  0.71599172  0.09528052  0.71107802     0.37800
H1834       H  0.71422668  0.20805953  0.81417025     0.32200
H1835       H  0.67850698  0.14521425  0.86665404     0.31100
H1836       H  0.67117056  0.10724875  0.86914124     0.32800
H1837       H  0.67596767  0.06181121  0.78560697     0.31800
H1838       H  0.67336870  0.17910081  0.76258743     0.35800
H1839       H  0.64204336  0.14286248  0.75141779     0.28500
H1840       H  0.78056589  0.16395437  0.79702439     0.32700
H1841       H  0.71344381  0.07396388  0.76256465     0.35600
H1842       H  0.70050313  0.15046144  0.87152715     0.28200
H1843       H  0.65190786  0.14842435  0.72201210     0.41100
H1844       H  0.71653750  0.18115762  0.68677166     0.31100
H1845       H  0.72874037  0.20680396  0.73149281     0.38700
H1846       H  0.67688469  0.07709683  0.80773391     0.30600
H1847       H  0.72678883  0.13991453  0.66120451     0.30700
H1848       H  0.76986525  0.14175626  0.78643129     0.30900
Zr1849     Zr  0.71573211  0.91259828  0.45101941     2.17500
O1850       O  0.68649128  0.88240023  0.46757110    -0.51400
O1851       O  0.73294578  0.89494642  0.46346741    -0.74600
O1852       O  0.69941893  0.88804515  0.41373346    -0.81400
O1853       O  0.71673468  0.94011696  0.51719050    -0.83200
O1854       O  0.71541194  0.90257831  0.37347544    -0.78800
O1855       O  0.70188500  0.90928943  0.49749651    -0.90400
O1856       O  0.76510315  0.91306287  0.44945469    -0.76400
O1857       O  0.74018495  0.92253491  0.41547943    -0.85900
O1858       O  0.74682844  0.93554508  0.47200112    -0.85600
O1859       O  0.70464470  0.92671678  0.41546186    -0.72300
O1860       O  0.71234156  0.94003224  0.46671401    -0.84500
Zr1861     Zr  0.75678775  0.98836449  0.41480969     2.26400
Zr1862     Zr  0.73009908  0.93763877  0.38075552     2.06300
Zr1863     Zr  0.74355984  0.96324876  0.48684136     2.10000
Zr1864     Zr  0.77088863  0.94592577  0.43569398     1.78800
O1865       O  0.73423297  0.98116938  0.51961775    -0.93300
O1866       O  0.78536199  0.93508445  0.39942560    -0.41100
O1867       O  0.76756256  0.97372302  0.45024705    -0.77700
O1868       O  0.76159123  0.96132635  0.39950552    -0.96400
O1869       O  0.72584603  0.96471981  0.39514147    -0.89700
O1870       O  0.73331352  0.97802460  0.45201423    -0.92500
C1871       C  0.75029757  0.89732126  0.45968785     1.01200
C1872       C  0.70385858  0.92142894  0.51706578     1.14100
C1873       C  0.70295341  0.88758392  0.38764329     1.04900
O1874       O  0.74705119  0.93057363  0.34360493    -0.94700
O1875       O  0.74307899  0.96272452  0.34535260    -0.90400
O1876       O  0.75817984  0.99374891  0.36418562    -0.83600
C1877       C  0.75220691  0.98169701  0.34333902     1.11600
O1878       O  0.66695664  0.93091778  0.43561125    -0.96700
Zr1879     Zr  0.70229365  0.95484430  0.43167981     1.88900
O1880       O  0.74115262  0.00931165  0.41411809    -0.73300
O1881       O  0.70106842  0.92818605  0.35166737    -0.52600
O1882       O  0.68460684  0.95518482  0.39000882    -0.97300
O1883       O  0.68533874  0.95879453  0.47184352    -0.54500
O1884       O  0.70933397  0.98876882  0.42818709    -0.73800
C1885       C  0.72383526  0.00592370  0.42175336     0.98500
O1886       O  0.79007734  0.01261871  0.39872493    -0.62700
O1887       O  0.76410451  0.95996197  0.52238854    -0.57500
O1888       O  0.77493054  0.01354798  0.44968898    -0.94100
O1889       O  0.77006972  0.99789240  0.49157115    -0.92600
O1890       O  0.79210380  0.95494723  0.47665499    -0.92900
O1891       O  0.80540943  0.96961575  0.42461125    -0.91700
C1892       C  0.77835597  0.01337783  0.47578907     1.17400
H1893       H  0.74999950  0.92968888  0.48751309     0.33300
H1894       H  0.77152620  0.96600639  0.38494437     0.44100
H1895       H  0.73314051  0.98911023  0.46100906     0.37700
H1896       H  0.69200854  0.91685019  0.40794541     0.34200
H1897       H  0.79272927  0.92965212  0.40951925     0.25900
H1898       H  0.70383683  0.94055864  0.34186045     0.31900
H1899       H  0.69334904  0.96821794  0.38103602     0.37800
H1900       H  0.79623304  0.94476531  0.47775440     0.32200
H1901       H  0.77671539  0.97284139  0.52215337     0.31100
H1902       H  0.73740492  0.97798777  0.53821474     0.32800
H1903       H  0.68340744  0.97017924  0.46726157     0.31800
H1904       H  0.80559531  0.98230630  0.42110628     0.35800
H1905       H  0.79909803  0.01347569  0.41388403     0.28500
H1906       H  0.68865215  0.87125282  0.46235411     0.32700
H1907       H  0.66635135  0.91900179  0.44420374     0.35600
H1908       H  0.75774319  0.95996844  0.54025901     0.28200
H1909       H  0.79304206  0.00588916  0.38348477     0.41100
H1910       H  0.75913399  0.93186028  0.35243231     0.31100
H1911       H  0.77391234  0.92323543  0.39110429     0.38700
H1912       H  0.69543914  0.96385327  0.48679930     0.30600
H1913       H  0.70185759  0.91967179  0.33692525     0.30700
H1914       H  0.67538282  0.88080825  0.45570259     0.30900
Zr1915     Zr  0.59403531  0.85486182  0.71825499     2.17500
O1916       O  0.62377078  0.85520990  0.70103746    -0.51400
O1917       O  0.57703838  0.81995078  0.70601559    -0.74600
O1918       O  0.61109090  0.84657604  0.75434149    -0.81400
O1919       O  0.59187013  0.88139262  0.65233763    -0.83200
O1920       O  0.59828016  0.84814090  0.79615949    -0.78800
O1921       O  0.60648956  0.86487734  0.67101695    -0.90400
O1922       O  0.54498292  0.80531414  0.72059965    -0.76400
O1923       O  0.57020187  0.84011519  0.75456651    -0.85900
O1924       O  0.56260443  0.84625946  0.69813082    -0.85600
O1925       O  0.60523669  0.87992521  0.75387402    -0.72300
O1926       O  0.59684382  0.88553188  0.70286747    -0.84500
Zr1927     Zr  0.55315181  0.88914909  0.75603627     2.26400
Zr1928     Zr  0.58035869  0.86541024  0.78924709     2.06300
Zr1929     Zr  0.56523666  0.87704644  0.68352515     2.10000
Zr1930     Zr  0.53913159  0.83241119  0.73507789     1.78800
O1931       O  0.57263787  0.90128268  0.64649559    -0.93300
O1932       O  0.52535689  0.80818087  0.77284100    -0.41100
O1933       O  0.54173891  0.86344538  0.72079765    -0.77700
O1934       O  0.54872219  0.85740572  0.77088206    -0.96400
O1935       O  0.58429404  0.89673808  0.77522842    -0.89700
O1936       O  0.57614252  0.90225069  0.71821162    -0.92500
C1937       C  0.55980024  0.80471184  0.70965287     1.01200
C1938       C  0.60446219  0.87522582  0.65176020     1.14100
C1939       C  0.60930733  0.84416628  0.78088478     1.04900
O1940       O  0.56176707  0.83943346  0.82352383    -0.94700
O1941       O  0.56731329  0.87652288  0.82581925    -0.90400
O1942       O  0.55032819  0.89058614  0.80703815    -0.83600
C1943       C  0.55675528  0.88487545  0.82785590     1.11600
O1944       O  0.64249085  0.92035413  0.73628598    -0.96700
Zr1945     Zr  0.60738749  0.91031281  0.73814471     1.88900
O1946       O  0.56903566  0.92582450  0.75679031    -0.73300
O1947       O  0.60870027  0.88483248  0.81954487    -0.52600
O1948       O  0.62313862  0.92756734  0.78116120    -0.97300
O1949       O  0.62624837  0.93190647  0.69941003    -0.54500
O1950       O  0.60050152  0.93729984  0.74090602    -0.73800
C1951       C  0.58603800  0.93980226  0.74811162     0.98500
O1952       O  0.52097845  0.88151480  0.77491000    -0.62700
O1953       O  0.54347549  0.85123591  0.65096820    -0.57500
O1954       O  0.53440740  0.89620590  0.72201400    -0.94100
O1955       O  0.54003589  0.88719546  0.67931610    -0.92600
O1956       O  0.51660760  0.81915015  0.69557468    -0.92900
O1957       O  0.50427381  0.82063870  0.74502164    -0.91700
C1958       C  0.53148764  0.89381478  0.69566468     1.17400
H1959       H  0.55940328  0.83714206  0.68271877     0.33300
H1960       H  0.53891555  0.85218352  0.78560608     0.44100
H1961       H  0.57617309  0.91342696  0.70928261     0.37700
H1962       H  0.61796748  0.88275617  0.76110336     0.34200
H1963       H  0.53589438  0.80500308  0.77738792     0.25900
H1964       H  0.60814802  0.89705037  0.82380909     0.31900
H1965       H  0.63174515  0.94165549  0.77560239     0.37800
H1966       H  0.51929152  0.80906719  0.68714955     0.32200
H1967       H  0.53341240  0.85490594  0.64564107     0.31100
H1968       H  0.56380509  0.89350023  0.63095693     0.32800
H1969       H  0.61930931  0.93928201  0.69450216     0.31800
H1970       H  0.50379481  0.83286502  0.74953223     0.35800
H1971       H  0.51977332  0.89344867  0.77123028     0.28500
H1972       H  0.62188185  0.84185598  0.70530514     0.32700
H1973       H  0.64286134  0.90915700  0.72691644     0.35600
H1974       H  0.55165542  0.85374840  0.63400460     0.28200
H1975       H  0.51109242  0.87107108  0.76251951     0.41100
H1976       H  0.56082004  0.82720701  0.81554793     0.31100
H1977       H  0.52490256  0.81575569  0.78914782     0.38700
H1978       H  0.62356657  0.92276686  0.68352362     0.30600
H1979       H  0.60518678  0.87733542  0.83731495     0.30700
H1980       H  0.63472682  0.86451540  0.71328717     0.30900
Zr1981     Zr  0.17337568  0.91755383  0.94544143     2.17500
O1982       O  0.17638752  0.88796483  0.95268667    -0.51400
O1983       O  0.13886704  0.89735785  0.95999568    -0.74600
O1984       O  0.18216188  0.91387145  0.99315803    -0.81400
O1985       O  0.17119623  0.91009883  0.86597727    -0.83200
O1986       O  0.19745018  0.94424116  0.01419831    -0.78800
O1987       O  0.16996929  0.89502110  0.90720724    -0.90400
O1988       O  0.12255618  0.91437349  0.95180452    -0.76400
O1989       O  0.16506331  0.93917864  0.96990037    -0.85900
O1990       O  0.15488822  0.92572421  0.91370302    -0.85600
O1991       O  0.20464705  0.94597109  0.95829799    -0.72300
O1992       O  0.19492212  0.93354633  0.90660341    -0.84500
Zr1993     Zr  0.19997756  0.99292743  0.91252266     2.26400
Zr1994     Zr  0.19595497  0.96784098  0.98235060     2.06300
Zr1995     Zr  0.17682191  0.94283475  0.87581450     2.10000
Zr1996     Zr  0.14713611  0.94772850  0.93794354     1.78800
O1997       O  0.19537968  0.94272870  0.83491905    -0.93300
O1998       O  0.13362171  0.95119109  0.98209236    -0.41100
O1999       O  0.16860518  0.96483769  0.89941817    -0.77700
O2000       O  0.17760037  0.97663636  0.95088950    -0.96400
O2001       O  0.21782514  0.98396030  0.94401932    -0.89700
O2002       O  0.20783890  0.97109369  0.88785511    -0.92500
C2003       C  0.12318449  0.89893160  0.95980211     1.01200
C2004       C  0.16956041  0.89549417  0.88040334     1.14100
C2005       C  0.19137511  0.92549292  0.01365469     1.04900
O2006       O  0.17542223  0.96444321  0.02270467    -0.94700
O2007       O  0.20339793  0.00190326  0.99169722    -0.90400
O2008       O  0.20890937  0.01734825  0.94956877    -0.83600
C2009       C  0.20821168  0.01724318  0.97631657     1.11600
O2010       O  0.23921094  0.94043781  0.92862915    -0.96700
Zr2011     Zr  0.22549544  0.96207099  0.91925811     1.88900
O2012       O  0.23580499  0.01465976  0.90662504    -0.73300
O2013       O  0.22725766  0.98627320  0.00729414    -0.52600
O2014       O  0.25319080  0.97564805  0.95176728    -0.97300
O2015       O  0.23669500  0.95312025  0.87705924    -0.54500
O2016       O  0.24898038  0.99441313  0.90121431    -0.73800
C2017       C  0.25027244  0.01152370  0.90161572     0.98500
O2018       O  0.18867976  0.01660515  0.90250734    -0.62700
O2019       O  0.14539103  0.92735220  0.85068319    -0.57500
O2020       O  0.19835620  0.99857846  0.86248280    -0.94100
O2021       O  0.17983450  0.96779716  0.84333553    -0.92600
O2022       O  0.12122799  0.93737514  0.90291841    -0.92900
O2023       O  0.13353501  0.96996160  0.93413294    -0.91700
C2024       C  0.18933293  0.98682161  0.84192476     1.17400
H2025       H  0.14312437  0.91396066  0.90720147     0.33300
H2026       H  0.17402079  0.98564478  0.95957733     0.44100
H2027       H  0.21569860  0.97734047  0.87140524     0.37700
H2028       H  0.21234800  0.94214042  0.96983770     0.34200
H2029       H  0.13662032  0.94342732  0.99566190     0.25900
H2030       H  0.22355909  0.98393007  0.02724380     0.31900
H2031       H  0.25465749  0.98853101  0.95782719     0.37800
H2032       H  0.12832109  0.94422202  0.88564200     0.32200
H2033       H  0.14917716  0.92850430  0.83079070     0.31100
H2034       H  0.18561666  0.93794965  0.81953190     0.32800
H2035       H  0.23856295  0.96337366  0.86317776     0.31800
H2036       H  0.14490614  0.98286695  0.92814733     0.35800
H2037       H  0.17757819  0.00969751  0.88919597     0.28500
H2038       H  0.16709798  0.88041618  0.96801083     0.32700
H2039       H  0.22770896  0.92774524  0.93497934     0.35600
H2040       H  0.13912134  0.91293119  0.85478200     0.28200
H2041       H  0.18204831  0.01725753  0.91977437     0.41100
H2042       H  0.17656648  0.97764830  0.02532151     0.31100
H2043       H  0.14234193  0.96523838  0.98767284     0.38700
H2044       H  0.22494533  0.94078885  0.87037552     0.30600
H2045       H  0.23431228  0.97880516  0.00376643     0.30700
H2046       H  0.18983496  0.89279287  0.96041258     0.30900
Zr2047     Zr  0.23476291  0.85720159  0.21455306     2.17500
O2048       O  0.20380669  0.85717738  0.20562183    -0.51400
O2049       O  0.21606106  0.82191907  0.20205504    -0.74600
O2050       O  0.23153497  0.86652759  0.16682582    -0.81400
O2051       O  0.22449476  0.85073836  0.29252707    -0.83200
O2052       O  0.26230772  0.88401094  0.14741683    -0.78800
O2053       O  0.21108579  0.85283944  0.25153722    -0.90400
O2054       O  0.23475181  0.80733548  0.20996336    -0.76400
O2055       O  0.25794676  0.85050770  0.19108050    -0.85900
O2056       O  0.24397522  0.83987288  0.24696476    -0.85600
O2057       O  0.26228667  0.88957946  0.20281926    -0.72300
O2058       O  0.24889971  0.87919459  0.25362651    -0.84500
Zr2059     Zr  0.30984099  0.88805449  0.25117269     2.26400
Zr2060     Zr  0.28564285  0.88248071  0.17974020     2.06300
Zr2061     Zr  0.25897502  0.86210624  0.28507148     2.10000
Zr2062     Zr  0.26749795  0.83375829  0.22398581     1.78800
O2063       O  0.25600615  0.88097368  0.32350118    -0.93300
O2064       O  0.27308387  0.82058314  0.18094293    -0.41100
O2065       O  0.28261885  0.85554515  0.26301323    -0.77700
O2066       O  0.29537400  0.86544842  0.21230567    -0.96400
O2067       O  0.29995037  0.90450726  0.21832806    -0.89700
O2068       O  0.28646201  0.89427448  0.27464791    -0.92500
C2069       C  0.21861113  0.80674282  0.20253662     1.01200
C2070       C  0.21037466  0.85000268  0.27801506     1.14100
C2071       C  0.24344729  0.87710711  0.14726564     1.04900
O2072       O  0.28386699  0.86050129  0.14221056    -0.94700
O2073       O  0.32058313  0.89247009  0.17263444    -0.90400
O2074       O  0.33506008  0.89711583  0.21528379    -0.83600
C2075       C  0.33553418  0.89699266  0.18855936     1.11600
O2076       O  0.25117904  0.92016074  0.24148818    -0.96700
Zr2077     Zr  0.27680651  0.91079341  0.24201762     1.88900
O2078       O  0.33037838  0.92441343  0.25643444    -0.73300
O2079       O  0.30315047  0.91247480  0.15141227    -0.52600
O2080       O  0.28022562  0.93774890  0.21217691    -0.97300
O2081       O  0.27809207  0.92508996  0.28772612    -0.54500
O2082       O  0.31108867  0.93676608  0.24084085    -0.73800
C2083       C  0.32782619  0.93878213  0.24813527     0.98500
O2084       O  0.33595302  0.88101427  0.26498478    -0.62700
O2085       O  0.24465089  0.83134923  0.31196567    -0.57500
O2086       O  0.31401970  0.88454359  0.30134191    -0.94100
O2087       O  0.28295906  0.86607086  0.31942130    -0.92600
O2088       O  0.25925847  0.80777984  0.25863704    -0.92900
O2089       O  0.29326641  0.82474949  0.22875161    -0.91700
C2090       C  0.30187186  0.87543318  0.32156205     1.17400
H2091       H  0.23261588  0.82770561  0.25338660     0.33300
H2092       H  0.30500313  0.86257729  0.20405070     0.44100
H2093       H  0.29217158  0.90210320  0.29124138     0.37700
H2094       H  0.25810056  0.89701359  0.19131005     0.34200
H2095       H  0.26760984  0.80619409  0.18461661     0.25900
H2096       H  0.30092499  0.90766543  0.13192836     0.31900
H2097       H  0.28583633  0.93601886  0.19457548     0.37800
H2098       H  0.24457413  0.80031266  0.25959478     0.32200
H2099       H  0.25478996  0.82716942  0.31149756     0.31100
H2100       H  0.24796788  0.88659285  0.31602308     0.32800
H2101       H  0.26408058  0.92040139  0.29274533     0.31800
H2102       H  0.30485838  0.83680724  0.23640051     0.35800
H2103       H  0.33650457  0.87245809  0.25009768     0.28500
H2104       H  0.19771684  0.84862076  0.18910256     0.32700
H2105       H  0.23950435  0.90861688  0.23300971     0.35600
H2106       H  0.24469735  0.83554085  0.33145489     0.28200
H2107       H  0.34855147  0.89383065  0.26323525     0.41100
H2108       H  0.29773587  0.86372399  0.13890819     0.31100
H2109       H  0.26377555  0.82107385  0.16733545     0.38700
H2110       H  0.28387798  0.93953027  0.28416974     0.30600
H2111       H  0.29539604  0.91938436  0.15341411     0.30700
H2112       H  0.20774367  0.87085919  0.19943633     0.30900
Zr2113     Zr  0.41188909  0.94626145  0.61350409     2.17500
O2114       O  0.44103018  0.97903296  0.62056950    -0.51400
O2115       O  0.43166686  0.93130581  0.62843630    -0.74600
O2116       O  0.41491585  0.95749067  0.66157951    -0.81400
O2117       O  0.42146580  0.95387455  0.53512755    -0.83200
O2118       O  0.38432025  0.94137009  0.68192163    -0.78800
O2119       O  0.43611117  0.96582224  0.57706425    -0.90400
O2120       O  0.41494267  0.89847671  0.61698056    -0.76400
O2121       O  0.38973421  0.91553512  0.63607200    -0.85900
O2122       O  0.40437447  0.92077638  0.58013402    -0.85600
O2123       O  0.38325107  0.94893028  0.62643104    -0.72300
O2124       O  0.39637611  0.95349985  0.57552352    -0.84500
Zr2125     Zr  0.33725340  0.89905398  0.57645664     2.26400
Zr2126     Zr  0.36086592  0.91763044  0.64830948     2.06300
Zr2127     Zr  0.38820347  0.92738890  0.54292818     2.10000
Zr2128     Zr  0.38179159  0.89022467  0.60217274     1.78800
O2129       O  0.39095392  0.94746689  0.50230966    -0.93300
O2130       O  0.37502062  0.87049959  0.64456248    -0.41100
O2131       O  0.36568257  0.89617177  0.56376519    -0.77700
O2132       O  0.35272523  0.89172162  0.61467075    -0.96400
O2133       O  0.34520708  0.92439270  0.61034749    -0.89700
O2134       O  0.35960930  0.92984144  0.55466538    -0.92500
C2135       C  0.43018201  0.91406149  0.62656817     1.01200
C2136       C  0.43608006  0.96587265  0.55024347     1.14100
C2137       C  0.40297351  0.95428723  0.68195706     1.04900
O2138       O  0.36045178  0.89641353  0.68603705    -0.94700
O2139       O  0.32624918  0.89170315  0.65542912    -0.90400
O2140       O  0.31227715  0.88176508  0.61245452    -0.83600
C2141       C  0.31152343  0.88108304  0.63920780     1.11600
O2142       O  0.39081193  0.99052927  0.59211221    -0.96700
Zr2143     Zr  0.36736365  0.95500576  0.58831004     1.88900
O2144       O  0.31477848  0.91240581  0.57160904    -0.73300
O2145       O  0.34399709  0.93189987  0.67437090    -0.52600
O2146       O  0.35850729  0.97108601  0.62472307    -0.97300
O2147       O  0.36952245  0.97322691  0.54582574    -0.54500
O2148       O  0.33318124  0.94571802  0.57964942    -0.73800
C2149       C  0.31680492  0.92982051  0.57439828     0.98500
O2150       O  0.31361115  0.86516516  0.56188783    -0.62700
O2151       O  0.40227385  0.90979562  0.51826904    -0.57500
O2152       O  0.33345540  0.89375825  0.52556579    -0.94100
O2153       O  0.36469281  0.90899264  0.50755459    -0.92600
O2154       O  0.39236049  0.87504599  0.56664366    -0.92900
O2155       O  0.36005616  0.85474411  0.59399605    -0.91700
C2156       C  0.34587082  0.89868948  0.50514170     1.17400
H2157       H  0.41624974  0.92097425  0.57370727     0.33300
H2158       H  0.34347327  0.87889504  0.62252363     0.44100
H2159       H  0.35375933  0.93216027  0.53840452     0.37700
H2160       H  0.38691368  0.96006412  0.63876704     0.34200
H2161       H  0.38530702  0.87943051  0.65793656     0.25900
H2162       H  0.34598756  0.92989423  0.69421346     0.31900
H2163       H  0.35180342  0.97733246  0.61487909     0.37800
H2164       H  0.40432126  0.88624083  0.55809345     0.32200
H2165       H  0.39998851  0.91113187  0.49830318     0.31100
H2166       H  0.39646316  0.94277551  0.48742476     0.32800
H2167       H  0.35655222  0.96529599  0.53643732     0.31800
H2168       H  0.34663868  0.85310609  0.59200210     0.35800
H2169       H  0.31343616  0.85647559  0.57715463     0.28500
H2170       H  0.44885672  0.97723790  0.63539302     0.32700
H2171       H  0.40399901  0.99149858  0.59298136     0.35600
H2172       H  0.41681927  0.91817083  0.52059998     0.28200
H2173       H  0.30044195  0.86424097  0.56275108     0.41100
H2174       H  0.35349864  0.89885191  0.70150462     0.31100
H2175       H  0.36248906  0.86906065  0.65201916     0.38700
H2176       H  0.37906326  0.97168239  0.53388732     0.30600
H2177       H  0.35219356  0.94645763  0.67141769     0.30700
H2178       H  0.43602358  0.98733642  0.62904098     0.30900
Zr2179     Zr  0.46727856  0.06226425  0.88255285     2.17500
O2180       O  0.46366873  0.02964395  0.87291493    -0.51400
O2181       O  0.50237390  0.07889960  0.87034768    -0.74600
O2182       O  0.46171989  0.05262324  0.83360201    -0.81400
O2183       O  0.46743341  0.05343583  0.96071001    -0.83200
O2184       O  0.44778237  0.06907758  0.81258488    -0.78800
O2185       O  0.47375657  0.04382878  0.91899149    -0.90400
O2186       O  0.51709427  0.11108465  0.88480116    -0.76400
O2187       O  0.47641901  0.09387181  0.86209617    -0.85900
O2188       O  0.48213105  0.08633485  0.91869312    -0.85600
O2189       O  0.43666217  0.05963005  0.86636711    -0.72300
O2190       O  0.44227840  0.05230283  0.91805914    -0.84500
Zr2191     Zr  0.43481360  0.10582748  0.91802161     2.26400
Zr2192     Zr  0.44618268  0.09184269  0.84647745     2.06300
Zr2193     Zr  0.45686183  0.07721137  0.95312100     2.10000
Zr2194     Zr  0.49062846  0.11760291  0.89861673     1.78800
O2195       O  0.43615784  0.05366283  0.98896463    -0.93300
O2196       O  0.50650464  0.13968667  0.85907879    -0.41100
O2197       O  0.46571030  0.10900262  0.93393941    -0.77700
O2198       O  0.46057408  0.11603621  0.88307560    -0.96400
O2199       O  0.42105254  0.08189966  0.88154276    -0.89700
O2200       O  0.42612313  0.07437525  0.93841059    -0.92500
C2201       C  0.51763529  0.09617784  0.87405463     1.01200
C2202       C  0.47272408  0.04323848  0.94581076     1.14100
C2203       C  0.45360463  0.05614155  0.81275730     1.04900
O2204       O  0.47084487  0.11425718  0.81307379    -0.94700
O2205       O  0.43795432  0.11839333  0.83946821    -0.90400
O2206       O  0.42905149  0.12470809  0.88181564    -0.83600
C2207       C  0.43172323  0.12754471  0.85538060     1.11600
O2208       O  0.40250793  0.01561438  0.89633510    -0.96700
Zr2209     Zr  0.41240529  0.05060738  0.90199806     1.88900
O2210       O  0.39837407  0.09046881  0.91849086    -0.73300
O2211       O  0.41878356  0.08181883  0.81393730    -0.52600
O2212       O  0.38901223  0.03310695  0.86450681    -0.97300
O2213       O  0.39422161  0.03126348  0.94272828    -0.54500
O2214       O  0.38659583  0.05898864  0.90247412    -0.73800
C2215       C  0.38437885  0.07368747  0.90934498     0.98500
O2216       O  0.43969434  0.13764571  0.93495364    -0.62700
O2217       O  0.48520341  0.09220692  0.98461362    -0.57500
O2218       O  0.43701812  0.11243452  0.96871682    -0.94100
O2219       O  0.45095283  0.09547681  0.98790298    -0.92600
O2220       O  0.51352519  0.13133688  0.93764158    -0.92900
O2221       O  0.50201970  0.15254921  0.90789911    -0.91700
C2222       C  0.44378431  0.10706099  0.98954534     1.17400
H2223       H  0.49363463  0.08637889  0.92640692     0.33300
H2224       H  0.46434086  0.12921777  0.87639438     0.44100
H2225       H  0.41697295  0.07128991  0.95373552     0.37700
H2226       H  0.43008475  0.04897797  0.85308192     0.34200
H2227       H  0.50956560  0.13180026  0.84581831     0.25900
H2228       H  0.42515124  0.08595775  0.79539677     0.31900
H2229       H  0.37600107  0.02506764  0.87384860     0.37800
H2230       H  0.52159227  0.12469737  0.93698194     0.32200
H2231       H  0.48964690  0.10661602  0.98457005     0.31100
H2232       H  0.44335539  0.05922438  0.00664184     0.32800
H2233       H  0.38707177  0.03791451  0.94997318     0.31800
H2234       H  0.49116917  0.15238814  0.91894525     0.35800
H2235       H  0.44930882  0.14783892  0.92195657     0.28500
H2236       H  0.47335647  0.03169760  0.85802846     0.32700
H2237       H  0.41512374  0.01558299  0.89359150     0.35600
H2238       H  0.47954615  0.08754846  0.00343618     0.28200
H2239       H  0.42696689  0.13731324  0.93149730     0.41100
H2240       H  0.46339593  0.11207515  0.79549728     0.31100
H2241       H  0.49580497  0.14100730  0.84995780     0.38700
H2242       H  0.40451884  0.03391624  0.95682766     0.30600
H2243       H  0.41192885  0.06708206  0.81365843     0.30700
H2244       H  0.45043169  0.02166100  0.86424771     0.30900
Zr2245     Zr  0.26515589  0.09489620  0.55101061     2.17500
O2246       O  0.29558069  0.12632754  0.54196402    -0.51400
O2247       O  0.24863165  0.11349546  0.53880419    -0.74600
O2248       O  0.27599664  0.09859746  0.50235303    -0.81400
O2249       O  0.27169058  0.10422846  0.62973799    -0.83200
O2250       O  0.25880645  0.06836381  0.48120561    -0.78800
O2251       O  0.28530134  0.11822488  0.58794340    -0.90400
O2252       O  0.21643557  0.09647243  0.55289087    -0.76400
O2253       O  0.23349487  0.07296766  0.53089449    -0.85900
O2254       O  0.24105374  0.08626937  0.58695731    -0.85600
O2255       O  0.26774035  0.06675015  0.53508674    -0.72300
O2256       O  0.27434410  0.07934092  0.58674722    -0.84500
Zr2257     Zr  0.22069016  0.01924518  0.58689505     2.26400
Zr2258     Zr  0.23560887  0.04470261  0.51530950     2.06300
Zr2259     Zr  0.24946118  0.06975210  0.62174438     2.10000
Zr2260     Zr  0.20970105  0.06372048  0.56748637     1.78800
O2261       O  0.27516152  0.07403792  0.65460778    -0.93300
O2262       O  0.18697328  0.05640302  0.52868638    -0.41100
O2263       O  0.21782444  0.04714662  0.60279966    -0.77700
O2264       O  0.21115265  0.03515967  0.55160296    -0.96400
O2265       O  0.24458936  0.02879811  0.55044586    -0.89700
O2266       O  0.25199312  0.04158779  0.60727694    -0.92500
C2267       C  0.23142345  0.11168505  0.54216095     1.01200
C2268       C  0.28418937  0.11860913  0.61468734     1.14100
C2269       C  0.27214405  0.08692892  0.48137202     1.04900
O2270       O  0.21406145  0.04740716  0.48097233    -0.94700
O2271       O  0.20954096  0.01009651  0.50850693    -0.90400
O2272       O  0.20304189  0.99458658  0.55071132    -0.83600
C2273       C  0.20058148  0.99464544  0.52427449     1.11600
O2274       O  0.31072984  0.07608946  0.56812267    -0.96700
Zr2275     Zr  0.27576460  0.05081672  0.57093135     1.88900
O2276       O  0.23575888  0.99785521  0.58962804    -0.73300
O2277       O  0.24568109  0.02681706  0.48358249    -0.52600
O2278       O  0.29430853  0.04694925  0.53283720    -0.97300
O2279       O  0.29409535  0.04871898  0.61073138    -0.54500
O2280       O  0.26628256  0.01612074  0.56999642    -0.73800
C2281       C  0.25187947  0.99975218  0.57912927     0.98500
O2282       O  0.18744812  0.99404719  0.60173793    -0.62700
O2283       O  0.23276412  0.08136454  0.65332798    -0.57500
O2284       O  0.21398113  0.01485075  0.63743183    -0.94100
O2285       O  0.23141812  0.04565126  0.65687158    -0.92600
O2286       O  0.19701578  0.07479151  0.60592693    -0.92900
O2287       O  0.17510056  0.04135111  0.57983097    -0.91700
C2288       C  0.21948307  0.02693429  0.65831844     1.17400
H2289       H  0.24122459  0.09793980  0.59436045     0.33300
H2290       H  0.19807581  0.02590351  0.54467516     0.44100
H2291       H  0.25484753  0.03540539  0.62269987     0.37700
H2292       H  0.27846875  0.07055784  0.52202556     0.34200
H2293       H  0.18038740  0.06429448  0.53249047     0.25900
H2294       H  0.24149991  0.02874026  0.46491348     0.31900
H2295       H  0.28438945  0.03512781  0.52242415     0.37800
H2296       H  0.20253280  0.08926717  0.60309228     0.32200
H2297       H  0.23374860  0.09331656  0.64429233     0.31100
H2298       H  0.27012877  0.06087406  0.66359162     0.32800
H2299       H  0.28621321  0.03486273  0.61762006     0.31800
H2300       H  0.17522062  0.03027412  0.58996490     0.35800
H2301       H  0.17831766  0.99456004  0.58781117     0.28500
H2302       H  0.29240104  0.13280447  0.52659685     0.32700
H2303       H  0.31073769  0.08865741  0.56428481     0.35600
H2304       H  0.21849865  0.07124341  0.65202606     0.28200
H2305       H  0.18670504  0.98105147  0.59868438     0.41100
H2306       H  0.21461473  0.03988382  0.46466597     0.31100
H2307       H  0.19565986  0.06311097  0.51248306     0.38700
H2308       H  0.29274801  0.05696239  0.62535947     0.30600
H2309       H  0.26036711  0.03468092  0.48315678     0.30700
H2310       H  0.30506752  0.12267517  0.53390135     0.30900
Zr2311     Zr  0.38428100  0.15358245  0.28187738     2.17500
O2312       O  0.35288976  0.15288250  0.28981114    -0.51400
O2313       O  0.39956895  0.18849706  0.29572652    -0.74600
O2314       O  0.37178732  0.14447652  0.32953781    -0.81400
O2315       O  0.37689667  0.15436992  0.20301500    -0.83200
O2316       O  0.38633992  0.12837559  0.34974743    -0.78800
O2317       O  0.36461555  0.15716504  0.24470360    -0.90400
O2318       O  0.43264491  0.20437284  0.28639543    -0.76400
O2319       O  0.41454976  0.16178669  0.30520690    -0.85900
O2320       O  0.41032395  0.17166771  0.24920884    -0.85600
O2321       O  0.38093226  0.12187040  0.29465441    -0.72300
O2322       O  0.37756858  0.13136902  0.24330667    -0.84500
Zr2323     Zr  0.43086529  0.12513129  0.24635989     2.26400
Zr2324     Zr  0.41175401  0.13046658  0.31753961     2.06300
Zr2325     Zr  0.40436264  0.14927829  0.21161897     2.10000
Zr2326     Zr  0.44038127  0.17899308  0.27185386     1.78800
O2327       O  0.38726474  0.13574436  0.16767819    -0.93300
O2328       O  0.45987073  0.19284061  0.31405129    -0.41100
O2329       O  0.43487280  0.15697830  0.23343245    -0.77700
O2330       O  0.43807132  0.14802518  0.28452013    -0.96400
O2331       O  0.40490338  0.10806671  0.27946533    -0.89700
O2332       O  0.40084967  0.11769322  0.22332488    -0.92500
C2333       C  0.41688378  0.20411133  0.29495131     1.01200
C2334       C  0.36465493  0.15681035  0.21789766     1.14100
C2335       C  0.37377223  0.13460827  0.34955112     1.04900
O2336       O  0.43129167  0.15194186  0.35576677    -0.94700
O2337       O  0.43800950  0.12221137  0.32483614    -0.90400
O2338       O  0.44730784  0.11653289  0.28230385    -0.83600
C2339       C  0.44828474  0.11733761  0.30900205     1.11600
O2340       O  0.34026743  0.09116537  0.26080494    -0.96700
Zr2341     Zr  0.37501828  0.10036115  0.25602803     1.88900
O2342       O  0.41694992  0.08903585  0.24159849    -0.73300
O2343       O  0.40099089  0.10051061  0.34543262    -0.52600
O2344       O  0.35733562  0.07396188  0.29004356    -0.97300
O2345       O  0.35697882  0.08563069  0.21301680    -0.54500
O2346       O  0.38346147  0.07475019  0.24666541    -0.73800
C2347       C  0.39930947  0.07385176  0.24274660     0.98500
O2348       O  0.46522043  0.13653227  0.23319376    -0.62700
O2349       O  0.42262026  0.18262099  0.19172103    -0.57500
O2350       O  0.43658864  0.12589968  0.19582178    -0.94100
O2351       O  0.42289909  0.14323616  0.17695904    -0.92600
O2352       O  0.45511314  0.20394409  0.23518943    -0.92900
O2353       O  0.47592315  0.19157232  0.26721554    -0.91700
C2354       C  0.43250878  0.13387566  0.17513031     1.17400
H2355       H  0.41038452  0.18352514  0.24282400     0.33300
H2356       H  0.45074298  0.15146922  0.29262610     0.44100
H2357       H  0.39863003  0.10956075  0.20702755     0.37700
H2358       H  0.36949100  0.11423125  0.30633397     0.34200
H2359       H  0.46681834  0.20745956  0.31129384     0.25900
H2360       H  0.40622688  0.10547787  0.36431015     0.31900
H2361       H  0.36788000  0.07445514  0.30213527     0.37800
H2362       H  0.46214033  0.21683635  0.24512695     0.32200
H2363       H  0.43478987  0.18350451  0.18374282     0.31100
H2364       H  0.39200107  0.14737246  0.15507789     0.32800
H2365       H  0.36380623  0.07908433  0.20433437     0.31800
H2366       H  0.47696580  0.17992514  0.26108780     0.35800
H2367       H  0.47328536  0.14407337  0.24945818     0.28500
H2368       H  0.35519741  0.16193239  0.30569841     0.32700
H2369       H  0.34055544  0.10245415  0.27089835     0.35600
H2370       H  0.41472008  0.18225042  0.17534570     0.28200
H2371       H  0.46632017  0.12434077  0.23254307     0.41100
H2372       H  0.42253992  0.15611054  0.36495658     0.31100
H2373       H  0.44996698  0.19030023  0.32879981     0.38700
H2374       H  0.36019467  0.09713596  0.20075425     0.30600
H2375       H  0.38642344  0.09449101  0.34728312     0.30700
H2376       H  0.34352994  0.13935273  0.29686751     0.30900
C2377       C  0.30655260  0.09605767  0.42854793     0.29700
C2378       C  0.31929568  0.09179945  0.41306450    -0.36700
C2379       C  0.33462870  0.10783449  0.39863015     0.15600
C2380       C  0.33690597  0.12667631  0.39850485     0.21500
C2381       C  0.32428770  0.13102985  0.41436859    -0.34800
C2382       C  0.30926109  0.11506376  0.42957206     0.15600
O2383       O  0.29214826  0.08352071  0.44504472    -0.26800
C2384       C  0.28561114  0.09458422  0.45723542     0.05300
C2385       C  0.29576159  0.11439663  0.44848939    -0.31700
O2386       O  0.35155900  0.13907354  0.38201966    -0.23500
C2387       C  0.35910376  0.12812476  0.37225445    -0.03500
C2388       C  0.34920233  0.10863123  0.38202514    -0.18000
H2389       H  0.31760368  0.07705792  0.41274462     0.20000
H2390       H  0.32620052  0.14585241  0.41508032     0.18400
H2391       H  0.29411791  0.12666305  0.45603429     0.18300
H2392       H  0.35161101  0.09648796  0.37625207     0.14200
C2393       C  0.43860269  0.13395633  0.10316625     0.29700
C2394       C  0.43557273  0.13777883  0.07553758    -0.36700
C2395       C  0.44006200  0.12785442  0.05492371     0.15600
C2396       C  0.44726859  0.11526793  0.06129986     0.21500
C2397       C  0.45050083  0.11159978  0.08890588    -0.34800
C2398       C  0.44581189  0.12136310  0.10951883     0.15600
O2399       O  0.43386677  0.14041987  0.12552498    -0.26800
C2400       C  0.43811071  0.13197463  0.14657239     0.05300
C2401       C  0.44568543  0.11994958  0.13792063    -0.31700
O2402       O  0.44958379  0.10680443  0.03907302    -0.23500
C2403       C  0.44371763  0.11388722  0.01806969    -0.03500
C2404       C  0.43767927  0.12718768  0.02661490    -0.18000
H2405       H  0.42946656  0.14727245  0.07055353     0.20000
H2406       H  0.45567539  0.10133209  0.09394820     0.18400
H2407       H  0.44948795  0.11075144  0.15053116     0.18300
H2408       H  0.43200709  0.13482844  0.01401692     0.14200
C2409       C  0.28402187  0.94655850  0.55893724     0.29700
C2410       C  0.27830982  0.95844265  0.54407693    -0.36700
C2411       C  0.26752721  0.96544917  0.55901644     0.15600
C2412       C  0.26254022  0.96108203  0.58675087     0.21500
C2413       C  0.26800417  0.94887561  0.60155077    -0.34800
C2414       C  0.27885963  0.94184995  0.58656390     0.15600
O2415       O  0.29666961  0.94107283  0.55016616    -0.26800
C2416       C  0.29936220  0.93229211  0.57218221     0.05300
C2417       C  0.28869585  0.93239154  0.59544767    -0.31700
O2418       O  0.25468517  0.97138776  0.59740370    -0.23500
C2419       C  0.25456920  0.98234416  0.57608472    -0.03500
C2420       C  0.26237750  0.97919652  0.55179753    -0.18000
H2421       H  0.28309480  0.96302134  0.52283392     0.20000
H2422       H  0.26510196  0.94609027  0.62361967     0.18400
H2423       H  0.28987092  0.92821889  0.61658056     0.18300
H2424       H  0.26543960  0.98724888  0.53230234     0.14200
C2425       C  0.41459061  0.99183062  0.73046375     0.29700
C2426       C  0.41275114  0.00732710  0.74231947    -0.36700
C2427       C  0.42845678  0.02052849  0.75924507     0.15600
C2428       C  0.44459741  0.01827957  0.76514986     0.21500
C2429       C  0.44665457  0.00289866  0.75281702    -0.34800
C2430       C  0.43115429  0.99000372  0.73500313     0.15600
O2431       O  0.40203860  0.97855530  0.71281656    -0.26800
C2432       C  0.41066864  0.96814679  0.70547743     0.05300
C2433       C  0.42894118  0.97467483  0.71840962    -0.31700
O2434       O  0.45655945  0.03140606  0.78368793    -0.23500
C2435       C  0.44820068  0.04251850  0.78889876    -0.03500
C2436       C  0.43081254  0.03648929  0.77401678    -0.18000
H2437       H  0.40000916  0.00909996  0.73835195     0.20000
H2438       H  0.45941639  0.00115098  0.75674426     0.18400
H2439       H  0.43935607  0.96943104  0.71516969     0.18300
H2440       H  0.42046924  0.04196183  0.77576961     0.14200
C2441       C  0.32801734  0.88532697  0.38458165     0.29700
C2442       C  0.34427162  0.89488674  0.40260751    -0.36700
C2443       C  0.33980535  0.89235489  0.43117544     0.15600
C2444       C  0.32073423  0.88129624  0.44152506     0.21500
C2445       C  0.30453435  0.87153735  0.42350830    -0.34800
C2446       C  0.30899565  0.87396790  0.39496168     0.15600
O2447       O  0.32845777  0.88683449  0.35710473    -0.26800
C2448       C  0.30943618  0.87615395  0.34989482     0.05300
C2449       C  0.29678182  0.86770236  0.37263691    -0.31700
O2450       O  0.31997123  0.88169914  0.46903139    -0.23500
C2451       C  0.33886934  0.89305639  0.47633044    -0.03500
C2452       C  0.35178253  0.90003940  0.45358815    -0.18000
H2453       H  0.35927402  0.90408268  0.39494564     0.20000
H2454       H  0.28944900  0.86303807  0.43116740     0.18400
H2455       H  0.28071387  0.85913432  0.37280045     0.18300
H2456       H  0.36773618  0.90978897  0.45357404     0.14200
C2457       C  0.36743291  0.98787555  0.25414953     0.29700
C2458       C  0.38083062  0.00547155  0.26823141    -0.36700
C2459       C  0.38745630  0.02344746  0.25344301     0.15600
C2460       C  0.38130918  0.02400052  0.22665990     0.21500
C2461       C  0.36833582  0.00649000  0.21246838    -0.34800
C2462       C  0.36166908  0.98867345  0.22722451     0.15600
O2463       O  0.35726276  0.96973505  0.26502648    -0.26800
C2464       C  0.34495617  0.95894851  0.24463465     0.05300
C2465       C  0.34711538  0.97000713  0.22078797    -0.31700
O2466       O  0.38644503  0.04219039  0.21841055    -0.23500
C2467       C  0.39645043  0.05368188  0.23981707    -0.03500
C2468       C  0.39756520  0.04281752  0.26222255    -0.18000
H2469       H  0.38471796  0.00528399  0.28981632     0.20000
H2470       H  0.36262533  0.00683126  0.19205280     0.18400
H2471       H  0.33810465  0.96523502  0.20213943     0.18300
H2472       H  0.40286658  0.04814687  0.28304093     0.14200
C2473       C  0.18896770  0.99396943  0.77043601     0.29700
C2474       C  0.18613842  0.98740271  0.74270798    -0.36700
C2475       C  0.19674248  0.00200853  0.72260954     0.15600
C2476       C  0.20901449  0.02174266  0.72949700     0.21500
C2477       C  0.21161012  0.02838555  0.75718686    -0.34800
C2478       C  0.20120997  0.01371882  0.77733001     0.15600
O2479       O  0.18236830  0.98243572  0.79246989    -0.26800
C2480       C  0.19044089  0.99481793  0.81385684     0.05300
C2481       C  0.20218766  0.01459960  0.80575990    -0.31700
O2482       O  0.21830943  0.03269663  0.70772577    -0.23500
C2483       C  0.21203435  0.01990251  0.68654993    -0.03500
C2484       C  0.19848740  0.00051227  0.69448833    -0.18000
H2485       H  0.17705209  0.97182917  0.73734326     0.20000
H2486       H  0.22171769  0.04375089  0.76269475     0.18400
H2487       H  0.21131625  0.02739285  0.81869394     0.18300
H2488       H  0.19132156  0.98730938  0.68162496     0.14200
C2489       C  0.29985099  0.04120382  0.88481643     0.29700
C2490       C  0.31730776  0.04428343  0.87197597    -0.36700
C2491       C  0.33493680  0.05650191  0.88627433     0.15600
C2492       C  0.33559570  0.06525003  0.91159095     0.21500
C2493       C  0.31802385  0.06242522  0.92427224    -0.34800
C2494       C  0.30024435  0.05016321  0.90984413     0.15600
O2495       O  0.28178453  0.02777405  0.87725152    -0.26800
C2496       C  0.27024627  0.02837121  0.89720124     0.05300
C2497       C  0.28089335  0.04208309  0.91802752    -0.31700
O2498       O  0.35357577  0.07392723  0.92282929    -0.23500
C2499       C  0.36437664  0.07061395  0.90428900    -0.03500
C2500       C  0.35350690  0.05995660  0.88122053    -0.18000
H2501       H  0.31705021  0.03651878  0.85310445     0.20000
H2502       H  0.31807365  0.06828129  0.94474258     0.18400
H2503       H  0.27542305  0.04383198  0.93796238     0.18300
H2504       H  0.35831512  0.05418468  0.86420654     0.14200
C2505       C  0.21520195  0.88506376  0.09720051     0.29700
C2506       C  0.19885893  0.88057837  0.07995633    -0.36700
C2507       C  0.19993459  0.89663154  0.06476306     0.15600
C2508       C  0.21573745  0.91580092  0.06706757     0.21500
C2509       C  0.23207969  0.92020837  0.08396788    -0.34800
C2510       C  0.23128154  0.90412934  0.09839704     0.15600
O2511       O  0.21735210  0.87256855  0.11367607    -0.26800
C2512       C  0.23531191  0.88374918  0.12475284     0.05300
C2513       C  0.24462099  0.90344604  0.11591048    -0.31700
O2514       O  0.21408634  0.92846333  0.05057904    -0.23500
C2515       C  0.19715082  0.91732620  0.03711185    -0.03500
C2516       C  0.18766934  0.89734076  0.04498356    -0.18000
H2517       H  0.18635116  0.86561799  0.07820903     0.20000
H2518       H  0.24474661  0.93510414  0.08532792     0.18400
H2519       H  0.25875623  0.91570668  0.12260886     0.18300
H2520       H  0.17416523  0.88508308  0.03661590     0.14200
C2521       C  0.47147074  0.91546178  0.65919710     0.29700
C2522       C  0.48663079  0.92120545  0.67910346    -0.36700
C2523       C  0.49739535  0.91102815  0.67826437     0.15600
C2524       C  0.49374531  0.89644839  0.65887805     0.21500
C2525       C  0.47841544  0.89051184  0.63928471    -0.34800
C2526       C  0.46746356  0.90045136  0.64040173     0.15600
O2527       O  0.45927074  0.92265306  0.65652104    -0.26800
C2528       C  0.44709773  0.91187430  0.63601052     0.05300
C2529       C  0.45150446  0.89782566  0.62528893    -0.31700
O2530       O  0.50559024  0.88888953  0.66181601    -0.23500
C2531       C  0.51685460  0.89856263  0.68361249    -0.03500
C2532       C  0.51232185  0.91243460  0.69478402    -0.18000
H2533       H  0.48965734  0.93262785  0.69439934     0.20000
H2534       H  0.47508739  0.87876778  0.62441073     0.18400
H2535       H  0.44394325  0.88715328  0.60881936     0.18300
H2536       H  0.51897802  0.92203099  0.71261751     0.14200
C2537       C  0.66772572  0.91238414  0.56702723     0.29700
C2538       C  0.65457583  0.91641067  0.58183673    -0.36700
C2539       C  0.64074268  0.90095471  0.59873697     0.15600
C2540       C  0.64026561  0.88298108  0.60155860     0.21500
C2541       C  0.65318901  0.87880798  0.58630808    -0.34800
C2542       C  0.66669219  0.89409536  0.56878691     0.15600
O2543       O  0.68152686  0.92457399  0.54957211    -0.26800
C2544       C  0.68926097  0.91390146  0.53966900     0.05300
C2545       C  0.68051440  0.89473416  0.55064355    -0.31700
O2546       O  0.62698920  0.87119559  0.61999688    -0.23500
C2547       C  0.61853602  0.88157581  0.62849195    -0.03500
C2548       C  0.62638842  0.90013509  0.61582788    -0.18000
H2549       H  0.65505218  0.93058148  0.58019850     0.20000
H2550       H  0.65274461  0.86465670  0.58799300     0.18400
H2551       H  0.68368635  0.88297418  0.54565765     0.18300
H2552       H  0.62282675  0.91174988  0.61988842     0.14200
C2553       C  0.59900263  0.11295249  0.84495772     0.29700
C2554       C  0.58959412  0.11994327  0.86303854    -0.36700
C2555       C  0.56876839  0.11010026  0.86167112     0.15600
C2556       C  0.55792041  0.09412269  0.84425294     0.21500
C2557       C  0.56732358  0.08720304  0.82606554    -0.34800
C2558       C  0.58815502  0.09737149  0.82692378     0.15600
O2559       O  0.61834597  0.12070354  0.84163791    -0.26800
C2560       C  0.61990851  0.11015221  0.82092453     0.05300
C2561       C  0.60160827  0.09545710  0.81091454    -0.31700
O2562       O  0.53861460  0.08709602  0.84641698    -0.23500
C2563       C  0.53702925  0.09888933  0.86517709    -0.03500
C2564       C  0.55534083  0.11355730  0.87527368    -0.18000
H2565       H  0.59795643  0.13250467  0.87671015     0.20000
H2566       H  0.55899061  0.07504072  0.81177210     0.18400
H2567       H  0.59869155  0.08524894  0.79383324     0.18300
H2568       H  0.55828719  0.12496264  0.89056443     0.14200
C2569       C  0.60362130  0.98830606  0.72491138     0.29700
C2570       C  0.61676021  0.00503751  0.70937834    -0.36700
C2571       C  0.61959133  0.02331852  0.71881840     0.15600
C2572       C  0.60991783  0.02508727  0.74182127     0.21500
C2573       C  0.59622313  0.00812756  0.75698866    -0.34800
C2574       C  0.59356871  0.98970699  0.74772571     0.15600
O2575       O  0.60134308  0.97046538  0.72197320    -0.26800
C2576       C  0.58953517  0.95999038  0.74290316     0.05300
C2577       C  0.58391630  0.97106498  0.75959699    -0.31700
O2578       O  0.61739578  0.04384370  0.74965488    -0.23500
C2579       C  0.63190229  0.05410173  0.73134614    -0.03500
C2580       C  0.63384964  0.04204564  0.71170136    -0.18000
H2581       H  0.62541808  0.00402573  0.69243159     0.20000
H2582       H  0.58935471  0.00937723  0.77591856     0.18400
H2583       H  0.57550142  0.96656510  0.77880975     0.18300
H2584       H  0.64565515  0.04626374  0.69660212     0.14200
C2585       C  0.76811385  0.00722242  0.27958740     0.29700
C2586       C  0.77952984  0.02296386  0.26129436    -0.36700
C2587       C  0.77684253  0.01824405  0.23282755     0.15600
C2588       C  0.76381279  0.99944525  0.22280737     0.21500
C2589       C  0.75246517  0.98372636  0.24107366    -0.34800
C2590       C  0.75515990  0.98842936  0.26949343     0.15600
O2591       O  0.76856606  0.00793680  0.30714381    -0.26800
C2592       C  0.75572112  0.98928363  0.31459025     0.05300
C2593       C  0.74692065  0.97666406  0.29198225    -0.31700
O2594       O  0.76316585  0.99864680  0.19530144    -0.23500
C2595       C  0.77605904  0.01720746  0.18769358    -0.03500
C2596       C  0.78502023  0.02993453  0.21020394    -0.18000
H2597       H  0.78979062  0.03782102  0.26867531     0.20000
H2598       H  0.74219482  0.96887570  0.23368488     0.18400
H2599       H  0.73636569  0.96083704  0.29213214     0.18300
H2600       H  0.79554184  0.04577106  0.20991191     0.14200
C2601       C  0.76961313  0.11002998  0.93902232     0.29700
C2602       C  0.77319536  0.12666890  0.92293587    -0.36700
C2603       C  0.75775143  0.12404992  0.90510573     0.15600
C2604       C  0.73982924  0.10646499  0.90383245     0.21500
C2605       C  0.73636191  0.08979438  0.91961392    -0.34800
C2606       C  0.75198511  0.09222836  0.93677742     0.15600
O2607       O  0.78195017  0.10903854  0.95699066    -0.26800
C2608       C  0.77224323  0.09021536  0.96576803     0.05300
C2609       C  0.75358093  0.07906566  0.95380714    -0.31700
O2610       O  0.72754309  0.10715886  0.88556789    -0.23500
C2611       C  0.73779927  0.12530301  0.87459899    -0.03500
C2612       C  0.75674711  0.13647108  0.88583930    -0.18000
H2613       H  0.78714585  0.14055713  0.92391559     0.20000
H2614       H  0.72257307  0.07577413  0.91819732     0.18400
H2615       H  0.74259412  0.06365108  0.95772322     0.18300
H2616       H  0.76819084  0.15138284  0.88022848     0.14200
C2617       C  0.64121192  0.11312038  0.56186023     0.29700
C2618       C  0.63426043  0.10907317  0.58944760    -0.36700
C2619       C  0.64879174  0.11761232  0.61017521     0.15600
C2620       C  0.66871179  0.12921524  0.60393085     0.21500
C2621       C  0.67562834  0.13325323  0.57637504    -0.34800
C2622       C  0.66112939  0.12477493  0.55567493     0.15600
O2623       O  0.63024777  0.10661648  0.53937598    -0.26800
C2624       C  0.64323240  0.11414361  0.51847269     0.05300
C2625       C  0.66275320  0.12561935  0.52730307    -0.31700
O2626       O  0.67981929  0.13539786  0.62631099    -0.23500
C2627       C  0.66697026  0.12779976  0.64730486    -0.03500
C2628       C  0.64734179  0.11655026  0.63858961    -0.18000
H2629       H  0.61864656  0.09986755  0.59435248     0.20000
H2630       H  0.69125440  0.14230012  0.57146139     0.18400
H2631       H  0.67606735  0.13336340  0.51476851     0.18300
H2632       H  0.63411252  0.10850430  0.65121911     0.14200
C2633       C  0.48260122  0.10220762  0.32527189     0.29700
C2634       C  0.49336905  0.09240353  0.32056163    -0.36700
C2635       C  0.50953480  0.09760255  0.33823321     0.15600
C2636       C  0.51502255  0.11173906  0.35892196     0.21500
C2637       C  0.50395078  0.12128535  0.36405415    -0.34800
C2638       C  0.48750844  0.11582748  0.34657706     0.15600
O2639       O  0.46780085  0.10051483  0.30994574    -0.26800
C2640       C  0.46278253  0.11287162  0.32183354     0.05300
C2641       C  0.47442891  0.12273339  0.34488085    -0.31700
O2642       O  0.53126368  0.11485631  0.37209061    -0.23500
C2643       C  0.53597912  0.10232464  0.35984267    -0.03500
C2644       C  0.52289135  0.09114455  0.33880080    -0.18000
H2645       H  0.48963654  0.08173887  0.30387170     0.20000
H2646       H  0.50805689  0.13240976  0.38018176     0.18400
H2647       H  0.47411551  0.13420872  0.35735608     0.18300
H2648       H  0.52336546  0.08008187  0.32556030     0.14200
C2649       C  0.47051408  0.99651451  0.50029766     0.29700
C2650       C  0.47741473  0.00287726  0.47313359    -0.36700
C2651       C  0.49613144  0.01994020  0.47087536     0.15600
C2652       C  0.50726025  0.02999150  0.49385372     0.21500
C2653       C  0.50033909  0.02364752  0.52107991    -0.34800
C2654       C  0.48158601  0.00653528  0.52333374     0.15600
O2655       O  0.45345478  0.98089949  0.50702535    -0.26800
C2656       C  0.45348273  0.98078407  0.53473049     0.05300
C2657       C  0.47065923  0.99639099  0.54614493    -0.31700
O2658       O  0.52490212  0.04468806  0.48695608    -0.23500
C2659       C  0.52511261  0.04406738  0.45924277    -0.03500
C2660       C  0.50751959  0.02906100  0.44801475    -0.18000
H2661       H  0.46889712  0.99487574  0.45502753     0.20000
H2662       H  0.50913734  0.03127844  0.53918092     0.18400
H2663       H  0.47438141  0.99988035  0.56790005     0.18300
H2664       H  0.50416418  0.02467230  0.42642262     0.14200
C2665       C  0.69972359  0.06724823  0.42681584     0.29700
C2666       C  0.71416016  0.06445072  0.41288209    -0.36700
C2667       C  0.71621522  0.04826887  0.42196714     0.15600
C2668       C  0.70485421  0.03595652  0.44339862     0.21500
C2669       C  0.69101317  0.03908952  0.45778571    -0.34800
C2670       C  0.68885971  0.05500024  0.44860805     0.15600
O2671       O  0.69264412  0.07880382  0.41855030    -0.26800
C2672       C  0.67719339  0.07387096  0.43538657     0.05300
C2673       C  0.67429770  0.05924117  0.45453275    -0.31700
O2674       O  0.70685252  0.02022351  0.44615298    -0.23500
C2675       C  0.71983628  0.02231510  0.42656592    -0.03500
C2676       C  0.72647739  0.03966536  0.41091157    -0.18000
H2677       H  0.72204164  0.07323012  0.39483637     0.20000
H2678       H  0.68139142  0.02878557  0.47355976     0.18400
H2679       H  0.66178012  0.05117004  0.46842066     0.18300
H2680       H  0.73607060  0.04433936  0.39281184     0.14200
C2681       C  0.55157307  0.88527803  0.90003810     0.29700
C2682       C  0.55543226  0.88242357  0.92769843    -0.36700
C2683       C  0.54484539  0.88612682  0.94815453     0.15600
C2684       C  0.53140386  0.89221749  0.94163876     0.21500
C2685       C  0.52734320  0.89482558  0.91393737    -0.34800
C2686       C  0.53803118  0.89122486  0.89346864     0.15600
O2687       O  0.56000646  0.88284666  0.87784768    -0.26800
C2688       C  0.55189352  0.88731546  0.85664704     0.05300
C2689       C  0.53806712  0.89269504  0.86505808    -0.31700
O2690       O  0.52435479  0.89636316  0.96392246    -0.23500
C2691       C  0.53326317  0.89281912  0.98504289    -0.03500
C2692       C  0.54608214  0.88619714  0.97655257    -0.18000
H2693       H  0.56624885  0.87801909  0.93288998     0.20000
H2694       H  0.51697669  0.89982545  0.90878338     0.18400
H2695       H  0.52914766  0.89668737  0.85220861     0.18300
H2696       H  0.55576104  0.88314653  0.98924730     0.14200
C2697       C  0.37442974  0.89718883  0.15130306     0.29700
C2698       C  0.38319933  0.88978686  0.13268050    -0.36700
C2699       C  0.40394798  0.89844135  0.13445867     0.15600
C2700       C  0.41521148  0.91356730  0.15292412     0.21500
C2701       C  0.40644927  0.92073432  0.17171245    -0.34800
C2702       C  0.38576795  0.91187008  0.17029047     0.15600
O2703       O  0.35525264  0.89070622  0.15423137    -0.26800
C2704       C  0.35436996  0.90124525  0.17554530     0.05300
C2705       C  0.37289446  0.91453155  0.18645655    -0.31700
O2706       O  0.43427508  0.91953712  0.15126189    -0.23500
C2707       C  0.43537295  0.90794888  0.13177669    -0.03500
C2708       C  0.41693641  0.89443077  0.12057235    -0.18000
H2709       H  0.37443260  0.87786418  0.11825405     0.20000
H2710       H  0.41514671  0.93218165  0.18678718     0.18400
H2711       H  0.37629069  0.92426751  0.20425836     0.18300
H2712       H  0.41363079  0.88332675  0.10464412     0.14200
C2713       C  0.55252429  0.98907298  0.23498501     0.29700
C2714       C  0.56976316  0.00257947  0.24926774    -0.36700
C2715       C  0.56835834  0.01700526  0.26511749     0.15600
C2716       C  0.55104915  0.01779884  0.26736478     0.21500
C2717       C  0.53388989  0.00448603  0.25269824    -0.34800
C2718       C  0.53542080  0.99031370  0.23634402     0.15600
O2719       O  0.55072119  0.97478310  0.21828707    -0.26800
C2720       C  0.53231373  0.96691820  0.20855348     0.05300
C2721       C  0.52211387  0.97604504  0.21891431    -0.31700
O2722       O  0.55275241  0.03172629  0.28477461    -0.23500
C2723       C  0.57152242  0.04022444  0.29325352    -0.03500
C2724       C  0.58197472  0.03177488  0.28155425    -0.18000
H2725       H  0.58334741  0.00194590  0.24799582     0.20000
H2726       H  0.52031398  0.00513328  0.25394850     0.18400
H2727       H  0.50728351  0.97294569  0.21375692     0.18300
H2728       H  0.59704980  0.03526219  0.28583468     0.14200
C2729       C  0.67184259  0.96668358  0.06849458     0.29700
C2730       C  0.65466991  0.96144834  0.05305448    -0.36700
C2731       C  0.63672166  0.94753719  0.06534573     0.15600
C2732       C  0.63562656  0.93931587  0.09124265     0.21500
C2733       C  0.65297439  0.94417091  0.10645623    -0.34800
C2734       C  0.67108386  0.95814242  0.09403231     0.15600
O2735       O  0.68969408  0.98129113  0.06233765    -0.26800
C2736       C  0.70081211  0.98208414  0.08382959     0.05300
C2737       C  0.69012072  0.96788949  0.10421964    -0.31700
O2738       O  0.61716560  0.92929528  0.10061636    -0.23500
C2739       C  0.60640406  0.93082480  0.08016424    -0.03500
C2740       C  0.61783027  0.94200149  0.05778980    -0.18000
H2741       H  0.65518171  0.96876182  0.03360334     0.20000
H2742       H  0.65231881  0.93850428  0.12726704     0.18400
H2743       H  0.69521706  0.96621359  0.12446348     0.18300
H2744       H  0.61311682  0.94727697  0.04009949     0.14200
C2745       C  0.49096414  0.98692993  0.00447417     0.29700
C2746       C  0.49000104  0.99272961  0.97706810    -0.36700
C2747       C  0.48517562  0.00781132  0.97420158     0.15600
C2748       C  0.48161417  0.01652431  0.99686647     0.21500
C2749       C  0.48267781  0.01080113  0.02427751    -0.34800
C2750       C  0.48744911  0.99567937  0.02713870     0.15600
O2751       O  0.49518959  0.97312723  0.01180392    -0.26800
C2752       C  0.49440291  0.97294370  0.03951098     0.05300
C2753       C  0.48964598  0.98670191  0.05032693    -0.31700
O2754       O  0.47703556  0.03006582  0.98952100    -0.23500
C2755       C  0.47766271  0.03013197  0.96180717    -0.03500
C2756       C  0.48269912  0.01658387  0.95099399    -0.18000
H2757       H  0.49274154  0.98588366  0.95925122     0.20000
H2758       H  0.47987048  0.01760256  0.04208907     0.18400
H2759       H  0.48818310  0.98972105  0.07194088     0.18300
H2760       H  0.48405264  0.01348650  0.92937817     0.14200
C2761       C  0.43282757  0.16838749  0.82078271     0.29700
C2762       C  0.44092185  0.18561707  0.80395802    -0.36700
C2763       C  0.43132450  0.19697196  0.80498065     0.15600
C2764       C  0.41466891  0.19152316  0.82106936     0.21500
C2765       C  0.40666049  0.17441145  0.83802296    -0.34800
C2766       C  0.41645913  0.16327658  0.83736263     0.15600
O2767       O  0.43989241  0.15605899  0.82389706    -0.26800
C2768       C  0.42801551  0.14296677  0.84296955     0.05300
C2769       C  0.41322302  0.14682229  0.85210316    -0.31700
O2770       O  0.40802158  0.20419826  0.81887522    -0.23500
C2771       C  0.42071088  0.21820152  0.80142721    -0.03500
C2772       C  0.43556630  0.21447762  0.79215306    -0.18000
H2773       H  0.45401118  0.19005602  0.79130763     0.20000
H2774       H  0.39384968  0.17024070  0.85117948     0.18400
H2775       H  0.40199707  0.13889119  0.86783128     0.18300
H2776       H  0.44761248  0.22329233  0.77789692     0.14200
C2777       C  0.31195613  0.15383147  0.66507494     0.29700
C2778       C  0.31649874  0.16147599  0.69217295    -0.36700
C2779       C  0.33354738  0.18014635  0.69486446     0.15600
C2780       C  0.34533833  0.19043216  0.67240062     0.21500
C2781       C  0.34088710  0.18268661  0.64532118    -0.34800
C2782       C  0.32369709  0.16410177  0.64257469     0.15600
O2783       O  0.29651926  0.13684666  0.65783641    -0.26800
C2784       C  0.29825458  0.13620496  0.63035243     0.05300
C2785       C  0.31490294  0.15277480  0.61957522    -0.31700
O2786       O  0.35986941  0.20811927  0.67936352    -0.23500
C2787       C  0.35740880  0.20917664  0.70659570    -0.03500
C2788       C  0.34129459  0.19217536  0.71749090    -0.18000
H2789       H  0.30714942  0.15360236  0.70979620     0.20000
H2790       H  0.34991020  0.19082121  0.62758237     0.18400
H2791       H  0.31988699  0.15585643  0.59815682     0.18300
H2792       H  0.33560413  0.18950189  0.73858663     0.14200
C2793       C  0.22664082  0.09758501  0.01235051     0.29700
C2794       C  0.23298156  0.08841755  0.99300759    -0.36700
C2795       C  0.22405381  0.06769388  0.99499898     0.15600
C2796       C  0.21004699  0.05661081  0.01496488     0.21500
C2797       C  0.20353561  0.06581589  0.03429308    -0.34800
C2798       C  0.21222954  0.08664094  0.03192896     0.15600
O2799       O  0.23309765  0.11681752  0.01400522    -0.26800
C2800       C  0.22254703  0.11836759  0.03465849     0.05300
C2801       C  0.20915513  0.10004361  0.04650054    -0.31700
O2802       O  0.20319648  0.03726607  0.01210296    -0.23500
C2803       C  0.21284284  0.03610599  0.98982545    -0.03500
C2804       C  0.22595275  0.05456303  0.97841692    -0.18000
H2805       H  0.24389832  0.09685154  0.97714421     0.20000
H2806       H  0.19222057  0.05732284  0.04966417     0.18400
H2807       H  0.19902435  0.09712175  0.06367553     0.18300
H2808       H  0.23503020  0.05775402  0.95991654     0.14200
C2809       C  0.30904986  0.21951448  0.93515099     0.29700
C2810       C  0.32341268  0.21684939  0.92107059    -0.36700
C2811       C  0.33648377  0.23259829  0.90376741     0.15600
C2812       C  0.33580035  0.24999196  0.90107574     0.21500
C2813       C  0.32136255  0.25260292  0.91500144    -0.34800
C2814       C  0.30796263  0.23663618  0.93170104     0.15600
O2815       O  0.29567386  0.20694360  0.95291244    -0.26800
C2816       C  0.28559174  0.21593361  0.96045675     0.05300
C2817       C  0.29252737  0.23440701  0.94778444    -0.31700
O2818       O  0.34917589  0.26260587  0.88339724    -0.23500
C2819       C  0.35838357  0.25308187  0.87434933    -0.03500
C2820       C  0.35106752  0.23430834  0.88620878    -0.18000
H2821       H  0.32422054  0.20336417  0.92325553     0.20000
H2822       H  0.32046849  0.26603406  0.91266865     0.18400
H2823       H  0.28764702  0.24511200  0.95122134     0.18300
H2824       H  0.35550864  0.22336258  0.88194124     0.14200
C2825       C  0.30300082  0.16754233  0.16173050     0.29700
C2826       C  0.30877487  0.16605741  0.18885831    -0.36700
C2827       C  0.32487875  0.16279776  0.19095094     0.15600
C2828       C  0.33444524  0.16096910  0.16786021     0.21500
C2829       C  0.32851957  0.16223278  0.14072550    -0.34800
C2830       C  0.31250109  0.16562708  0.13862427     0.15600
O2831       O  0.28934935  0.17204485  0.15509541    -0.26800
C2832       C  0.29003630  0.17300321  0.12743196     0.05300
C2833       C  0.30407610  0.16900739  0.11589816    -0.31700
O2834       O  0.34953183  0.15863772  0.17455501    -0.23500
C2835       C  0.34969607  0.15899644  0.20225432    -0.03500
C2836       C  0.33466244  0.16151234  0.21370671    -0.18000
H2837       H  0.30159131  0.16791391  0.20701813     0.20000
H2838       H  0.33621291  0.16118405  0.12256857     0.18400
H2839       H  0.30815077  0.16955128  0.09421997     0.18300
H2840       H  0.33156445  0.16246114  0.23545779     0.14200
C2841       C  0.37831973  0.37904252  0.77866293     0.29700
C2842       C  0.36565939  0.38336106  0.79415908    -0.36700
C2843       C  0.36120829  0.39718043  0.78239452     0.15600
C2844       C  0.36898587  0.40648193  0.75724335     0.21500
C2845       C  0.38233837  0.40270992  0.74219432    -0.34800
C2846       C  0.38656055  0.38854417  0.75377990     0.15600
O2847       O  0.38114511  0.36393083  0.78333432    -0.26800
C2848       C  0.39151880  0.36369505  0.76145847     0.05300
C2849       C  0.39565128  0.37887547  0.74245431    -0.31700
O2850       O  0.35998935  0.41595043  0.74775789    -0.23500
C2851       C  0.34649026  0.41280735  0.76721248    -0.03500
C2852       C  0.34660740  0.40123860  0.78918959    -0.18000
H2853       H  0.35826693  0.37507007  0.81278055     0.20000
H2854       H  0.38757740  0.40896359  0.72169525     0.18400
H2855       H  0.40237335  0.38105514  0.72205956     0.18300
H2856       H  0.33589439  0.39477651  0.80594006     0.14200
C2857       C  0.20832385  0.22871051  0.22349033     0.29700
C2858       C  0.19879364  0.23538755  0.24171085    -0.36700
C2859       C  0.19928540  0.23117816  0.27004121     0.15600
C2860       C  0.20847356  0.22110897  0.28008934     0.21500
C2861       C  0.21791447  0.21431301  0.26184652    -0.34800
C2862       C  0.21748146  0.21859732  0.23349516     0.15600
O2863       O  0.20978680  0.23103210  0.19608641    -0.26800
C2864       C  0.22010878  0.22231350  0.18852497     0.05300
C2865       C  0.22525639  0.21439839  0.21100674    -0.31700
O2866       O  0.20773941  0.21961309  0.30761137    -0.23500
C2867       C  0.19786591  0.22882969  0.31512564    -0.03500
C2868       C  0.19223272  0.23617683  0.29254903    -0.18000
H2869       H  0.19165810  0.24348304  0.23438792     0.20000
H2870       H  0.22531590  0.20648596  0.26921974     0.18400
H2871       H  0.23343410  0.20645351  0.21075286     0.18300
H2872       H  0.18455738  0.24461911  0.29277437     0.14200
C2873       C  0.21662566  0.14688385  0.52883799     0.29700
C2874       C  0.20515881  0.15618783  0.53175955    -0.36700
C2875       C  0.21025978  0.17255137  0.51419183     0.15600
C2876       C  0.22530181  0.17900291  0.49468795     0.21500
C2877       C  0.23696750  0.16993073  0.49213071    -0.34800
C2878       C  0.23211599  0.15383712  0.51001487     0.15600
O2879       O  0.21424226  0.13110333  0.54265477    -0.26800
C2880       C  0.22860694  0.12815873  0.53283123     0.05300
C2881       C  0.24021693  0.14188536  0.51255641    -0.31700
O2882       O  0.22666963  0.19367015  0.47913686    -0.23500
C2883       C  0.21259180  0.19695198  0.48915320    -0.03500
C2884       C  0.20200127  0.18437565  0.51113452    -0.18000
H2885       H  0.19299202  0.15091086  0.54646037     0.20000
H2886       H  0.24883712  0.17490917  0.47698610     0.18400
H2887       H  0.25253672  0.14264209  0.50096687     0.18300
H2888       H  0.18947408  0.18349671  0.52229896     0.14200
C2889       C  0.21981603  0.32420374  0.56735807     0.29700
C2890       C  0.23707534  0.33823705  0.58107531    -0.36700
C2891       C  0.23477864  0.35088840  0.59960295     0.15600
C2892       C  0.21666314  0.34955580  0.60472205     0.21500
C2893       C  0.19947354  0.33584273  0.59046258    -0.34800
C2894       C  0.20185157  0.32342858  0.57149525     0.15600
O2895       O  0.21861834  0.31094248  0.54918910    -0.26800
C2896       C  0.19973300  0.30174015  0.54124081     0.05300
C2897       C  0.18859449  0.30900304  0.55416296    -0.31700
O2898       O  0.21774476  0.36208085  0.62411035    -0.23500
C2899       C  0.23686681  0.37183050  0.63099865    -0.03500
C2900       C  0.24821003  0.36558822  0.61632730    -0.18000
H2901       H  0.25128399  0.33917146  0.57760749     0.20000
H2902       H  0.18524982  0.33485321  0.59402483     0.18400
H2903       H  0.17309287  0.30439916  0.55108163     0.18300
H2904       H  0.26386049  0.37055367  0.61858509     0.14200
C2905       C  0.33743464  0.47099144  0.93611048     0.29700
C2906       C  0.34362036  0.47442435  0.90821636    -0.36700
C2907       C  0.32850534  0.46556114  0.88841357     0.15600
C2908       C  0.30873713  0.45432277  0.89577299     0.21500
C2909       C  0.30254199  0.45115140  0.92359244    -0.34800
C2910       C  0.31763800  0.45982686  0.94335859     0.15600
O2911       O  0.34913003  0.47627049  0.95788607    -0.26800
C2912       C  0.33669915  0.46839279  0.97929089     0.05300
C2913       C  0.31686598  0.45810704  0.97159627    -0.31700
O2914       O  0.29718639  0.44639786  0.87417873    -0.23500
C2915       C  0.30961753  0.45256346  0.85265993    -0.03500
C2916       C  0.32936136  0.46466131  0.86011231    -0.18000
H2917       H  0.35915076  0.48270819  0.90242711     0.20000
H2918       H  0.28710156  0.44189740  0.92939207     0.18400
H2919       H  0.30394844  0.44969190  0.98466908     0.18300
H2920       H  0.34235589  0.47123456  0.84681577     0.14200
C2921       C  0.27800646  0.35977295  0.07453993     0.29700
C2922       C  0.26552864  0.34297697  0.09090006    -0.36700
C2923       C  0.26123032  0.32434587  0.08011598     0.15600
C2924       C  0.26873012  0.32256194  0.05489571     0.21500
C2925       C  0.28066226  0.33920750  0.03824947    -0.34800
C2926       C  0.28506695  0.35772737  0.04909957     0.15600
O2927       O  0.28673717  0.37854001  0.08275377    -0.26800
C2928       C  0.29939868  0.38860703  0.06225030     0.05300
C2929       C  0.29894530  0.37637832  0.04078439    -0.31700
O2930       O  0.26566029  0.30447795  0.05062874    -0.23500
C2931       C  0.25580462  0.29425124  0.07309854    -0.03500
C2932       C  0.25235629  0.30576891  0.09214635    -0.18000
H2933       H  0.26083456  0.34446035  0.11155501     0.20000
H2934       H  0.28741019  0.33793090  0.01920296     0.18400
H2935       H  0.30908978  0.38038078  0.02335053     0.18300
H2936       H  0.24604973  0.30160134  0.11282404     0.14200
C2937       C  0.42216303  0.32702680  0.60596977     0.29700
C2938       C  0.41810770  0.32017258  0.57837141    -0.36700
C2939       C  0.42549348  0.33487159  0.55765788     0.15600
C2940       C  0.43610157  0.35490465  0.56388658     0.21500
C2941       C  0.44024605  0.36176312  0.59152411    -0.34800
C2942       C  0.43286209  0.34704778  0.61225508     0.15600
O2943       O  0.41674613  0.31580061  0.62834788    -0.26800
C2944       C  0.42403135  0.32866672  0.64938763     0.05300
C2945       C  0.43424407  0.34842892  0.64069594    -0.31700
O2946       O  0.44167516  0.36607740  0.54139783    -0.23500
C2947       C  0.43465447  0.35313056  0.52038156    -0.03500
C2948       C  0.42441130  0.33340727  0.52923132    -0.18000
H2949       H  0.40982423  0.30445745  0.57343281     0.20000
H2950       H  0.44868346  0.37746917  0.59647114     0.18400
H2951       H  0.44167651  0.36172167  0.65334477     0.18300
H2952       H  0.41734589  0.32005161  0.51666171     0.14200
C2953       C  0.41893260  0.27615892  0.34171768     0.29700
C2954       C  0.40734980  0.25529171  0.34323432    -0.36700
C2955       C  0.41357438  0.24454308  0.32650034     0.15600
C2956       C  0.43029117  0.25367399  0.30987358     0.21500
C2957       C  0.44167443  0.27452317  0.30800738    -0.34800
C2958       C  0.43518361  0.28526721  0.32423231     0.15600
O2959       O  0.41625995  0.28912420  0.35625511    -0.26800
C2960       C  0.43073653  0.30677994  0.34750365     0.05300
C2961       C  0.44284770  0.30526870  0.32741499    -0.31700
O2962       O  0.43375644  0.24075115  0.29669256    -0.23500
C2963       C  0.41886689  0.22308544  0.30459637    -0.03500
C2964       C  0.40581378  0.22454260  0.32304769    -0.18000
H2965       H  0.39445593  0.24794648  0.35664500     0.20000
H2966       H  0.45472899  0.28186245  0.29489172     0.18400
H2967       H  0.45590423  0.31719316  0.31751396     0.18300
H2968       H  0.39272834  0.21258568  0.33284677     0.14200
C2969       C  0.42618766  0.42657106  0.26410433     0.29700
C2970       C  0.40917539  0.42268603  0.24912817    -0.36700
C2971       C  0.41092081  0.43825936  0.23234346     0.15600
C2972       C  0.42828273  0.45633879  0.23010139     0.21500
C2973       C  0.44516679  0.46040313  0.24563854    -0.34800
C2974       C  0.44335808  0.44487020  0.26267013     0.15600
O2975       O  0.42780060  0.41415859  0.28118062    -0.26800
C2976       C  0.44617433  0.42467748  0.29100976     0.05300
C2977       C  0.45652767  0.44394003  0.28040093    -0.31700
O2978       O  0.42697107  0.46820796  0.21159372    -0.23500
C2979       C  0.40840361  0.45770444  0.20240294    -0.03500
C2980       C  0.39770239  0.43902892  0.21466250    -0.18000
H2981       H  0.39558241  0.40846032  0.25030520     0.20000
H2982       H  0.45881421  0.47456460  0.24427131     0.18400
H2983       H  0.47137981  0.45563834  0.28554112     0.18300
H2984       H  0.38273442  0.42734186  0.21002899     0.14200
C2985       C  0.29999535  0.27588667  0.41585183     0.29700
C2986       C  0.31723579  0.28118291  0.43158234    -0.36700
C2987       C  0.33534835  0.29540355  0.41949841     0.15600
C2988       C  0.33622602  0.30378866  0.39379944     0.21500
C2989       C  0.31916989  0.29810942  0.37782280    -0.34800
C2990       C  0.30118805  0.28394651  0.38980199     0.15600
O2991       O  0.28147085  0.26556932  0.42485283    -0.26800
C2992       C  0.27074185  0.26682969  0.40412248     0.05300
C2993       C  0.28226741  0.27803102  0.38180507    -0.31700
O2994       O  0.35410252  0.31838958  0.38773882    -0.23500
C2995       C  0.36511006  0.31924135  0.40942856    -0.03500
C2996       C  0.35430130  0.30522624  0.42992940    -0.18000
H2997       H  0.31646856  0.27558748  0.45246951     0.20000
H2998       H  0.31976203  0.30521474  0.35814777     0.18400
H2999       H  0.27756161  0.28306389  0.36384628     0.18300
H3000       H  0.35933273  0.30353429  0.45021470     0.14200
C3001       C  0.48140611  0.40301551  0.82865136     0.29700
C3002       C  0.49214283  0.42373678  0.82460102    -0.36700
C3003       C  0.50842079  0.43450701  0.84232457     0.15600
C3004       C  0.51400709  0.42552002  0.86239978     0.21500
C3005       C  0.50298090  0.40481859  0.86687652    -0.34800
C3006       C  0.48646054  0.39406194  0.84944665     0.15600
O3007       O  0.46652669  0.38999022  0.81320605    -0.26800
C3008       C  0.46167501  0.37243180  0.82452899     0.05300
C3009       C  0.47343657  0.37408586  0.84737995    -0.31700
O3010       O  0.53019010  0.43842490  0.87591071    -0.23500
C3011       C  0.53480665  0.45594937  0.86464738    -0.03500
C3012       C  0.52172183  0.45438618  0.84372607    -0.18000
H3013       H  0.48828319  0.43093092  0.80841608     0.20000
H3014       H  0.50715299  0.39756622  0.88258034     0.18400
H3015       H  0.47322577  0.36220564  0.85952816     0.18300
H3016       H  0.52213439  0.46619000  0.83114573     0.14200
C3017       C  0.50065012  0.51155085  0.97295707     0.29700
C3018       C  0.48284685  0.51200086  0.97322798    -0.36700
C3019       C  0.47344265  0.50875627  0.99920829     0.15600
C3020       C  0.48093206  0.50528441  0.02330808     0.21500
C3021       C  0.49871375  0.50485430  0.02303523    -0.34800
C3022       C  0.50808912  0.50806207  0.99708818     0.15600
O3023       O  0.51235234  0.51486092  0.95122388    -0.26800
C3024       C  0.52743830  0.51345063  0.96171634     0.05300
C3025       C  0.52545755  0.50912807  0.99007090    -0.31700
O3026       O  0.46925692  0.50184503  0.04506122    -0.23500
C3027       C  0.45412913  0.50320394  0.03472210    -0.03500
C3028       C  0.45599340  0.50752564  0.00633920    -0.18000
H3029       H  0.47675876  0.51469642  0.95454872     0.20000
H3030       H  0.50478086  0.50212588  0.04170911     0.18400
H3031       H  0.53576489  0.50775189  0.00377792     0.18300
H3032       H  0.44554560  0.50871183  0.99269174     0.14200
C3033       C  0.38434681  0.50021265  0.67577056     0.29700
C3034       C  0.40491995  0.51098899  0.68039630    -0.36700
C3035       C  0.41606758  0.52663672  0.66179434     0.15600
C3036       C  0.40756919  0.53163049  0.64033168     0.21500
C3037       C  0.38696465  0.52067730  0.63549329    -0.34800
C3038       C  0.37580983  0.50473253  0.65384866     0.15600
O3039       O  0.37111959  0.48555141  0.69137948    -0.26800
C3040       C  0.35381131  0.48024867  0.67913316     0.05300
C3041       C  0.35583054  0.49160831  0.65552531    -0.31700
O3042       O  0.42083859  0.54711464  0.62583478    -0.23500
C3043       C  0.43806029  0.55183760  0.63794205    -0.03500
C3044       C  0.43597132  0.53959565  0.66040385    -0.18000
H3045       H  0.41175273  0.50749642  0.69746871     0.20000
H3046       H  0.38010557  0.52438410  0.61869057     0.18400
H3047       H  0.34420518  0.49093250  0.64238493     0.18300
H3048       H  0.44746323  0.54028985  0.67387031     0.14200
C3049       C  0.55884094  0.73347057  0.66216969     0.29700
C3050       C  0.56795080  0.75410583  0.65807923    -0.36700
C3051       C  0.56232208  0.76445425  0.67649097     0.15600
C3052       C  0.54842402  0.75521335  0.69732298     0.21500
C3053       C  0.53956346  0.73453410  0.70177148    -0.34800
C3054       C  0.54547902  0.72417361  0.68359209     0.15600
O3055       O  0.56116798  0.72084509  0.64638793    -0.26800
C3056       C  0.54949863  0.70319120  0.65813308     0.05300
C3057       C  0.53947424  0.70436091  0.68150945    -0.31700
O3058       O  0.54510289  0.76791032  0.71161173    -0.23500
C3059       C  0.55727349  0.78549856  0.69989619    -0.03500
C3060       C  0.56835787  0.78417005  0.67808528    -0.18000
H3061       H  0.57854156  0.76156387  0.64145621     0.20000
H3062       H  0.52872016  0.72702654  0.71809042     0.18400
H3063       H  0.52849376  0.69224770  0.69407067     0.18300
H3064       H  0.57929014  0.79608860  0.66520080     0.14200
C3065       C  0.49072673  0.48903616  0.49345692     0.29700
C3066       C  0.49302216  0.49618897  0.52074632    -0.36700
C3067       C  0.49413309  0.51464753  0.52374984     0.15600
C3068       C  0.49305836  0.52524589  0.50135217     0.21500
C3069       C  0.49075547  0.51807818  0.47402572    -0.34800
C3070       C  0.48970411  0.49963074  0.47101126     0.15600
O3071       O  0.48840276  0.47171928  0.48618262    -0.26800
C3072       C  0.48594004  0.47117907  0.45876283     0.05300
C3073       C  0.48673300  0.48819875  0.44798339    -0.31700
O3074       O  0.49480626  0.54232403  0.50883678    -0.23500
C3075       C  0.49697536  0.54267967  0.53634109    -0.03500
C3076       C  0.49663420  0.52581982  0.54689094    -0.18000
H3077       H  0.49371649  0.48785180  0.53838359     0.20000
H3078       H  0.48979946  0.52628659  0.45641706     0.18400
H3079       H  0.48433873  0.49117164  0.42673567     0.18300
H3080       H  0.49852095  0.52257161  0.56822633     0.14200
C3081       C  0.54999057  0.54861457  0.76421770     0.29700
C3082       C  0.53267932  0.54514814  0.75010427    -0.36700
C3083       C  0.53420597  0.56116162  0.73427425     0.15600
C3084       C  0.55143360  0.57940403  0.73309427     0.21500
C3085       C  0.56880272  0.58266313  0.74653326    -0.34800
C3086       C  0.56743187  0.56655466  0.76163772     0.15600
O3087       O  0.55168378  0.53637255  0.78174768    -0.26800
C3088       C  0.57064366  0.54640994  0.78963109     0.05300
C3089       C  0.58113998  0.56519369  0.77758982    -0.31700
O3090       O  0.54968719  0.59235221  0.71730219    -0.23500
C3091       C  0.53118275  0.58232936  0.70776905    -0.03500
C3092       C  0.52086008  0.56272073  0.71739944    -0.18000
H3093       H  0.51897468  0.53104547  0.75153961     0.20000
H3094       H  0.58246672  0.59682084  0.74530248     0.18400
H3095       H  0.59620947  0.57679217  0.78191095     0.18300
H3096       H  0.50598297  0.55118634  0.71203809     0.14200
C3097       C  0.55226195  0.68683606  0.39577032     0.29700
C3098       C  0.55589680  0.69396136  0.42334116    -0.36700
C3099       C  0.54742600  0.67946577  0.44432889     0.15600
C3100       C  0.53616600  0.65944611  0.43828098     0.21500
C3101       C  0.53261628  0.65235137  0.41081100    -0.34800
C3102       C  0.54109723  0.66678716  0.38988624     0.15600
O3103       O  0.55893939  0.69769814  0.37305989    -0.26800
C3104       C  0.55205522  0.68450802  0.35230041     0.05300
C3105       C  0.54080655  0.66495895  0.36152635    -0.31700
O3106       O  0.52990588  0.64838021  0.46075583    -0.23500
C3107       C  0.53717128  0.66129643  0.48170750    -0.03500
C3108       C  0.54829140  0.68099233  0.47282192    -0.18000
H3109       H  0.56483017  0.70966904  0.42805033     0.20000
H3110       H  0.52396715  0.63661684  0.40612814     0.18400
H3111       H  0.53363708  0.65146624  0.34925003     0.18300
H3112       H  0.55609531  0.69429929  0.48536790     0.14200
C3113       C  0.47156357  0.57530971  0.15688992     0.29700
C3114       C  0.48687824  0.58445719  0.17649282    -0.36700
C3115       C  0.49882627  0.60519935  0.17429037     0.15600
C3116       C  0.49613618  0.61621775  0.15393148     0.21500
C3117       C  0.48065245  0.60708920  0.13448680    -0.34800
C3118       C  0.46847779  0.58635160  0.13699216     0.15600
O3119       O  0.45850174  0.55611770  0.15538019    -0.26800
C3120       C  0.44669923  0.55485925  0.13449986     0.05300
C3121       C  0.45212160  0.57320752  0.12236371    -0.31700
O3122       O  0.50877309  0.63549867  0.15624125    -0.23500
C3123       C  0.51952782  0.63682961  0.17855701    -0.03500
C3124       C  0.51395309  0.61844898  0.19064148    -0.18000
H3125       H  0.48912516  0.57602172  0.19262661     0.20000
H3126       H  0.47806161  0.61559372  0.11883523     0.18400
H3127       H  0.44507255  0.57633801  0.10519768     0.18300
H3128       H  0.51986657  0.61538261  0.20920266     0.14200
C3129       C  0.55913231  0.84437843  0.16389257     0.29700
C3130       C  0.57091132  0.83546685  0.16039383    -0.36700
C3131       C  0.56631645  0.81906974  0.17759974     0.15600
C3132       C  0.55096066  0.81170270  0.19665788     0.21500
C3133       C  0.53937731  0.82084549  0.20049697    -0.34800
C3134       C  0.54418374  0.83747639  0.18356625     0.15600
O3135       O  0.56022420  0.85920949  0.14900099    -0.26800
C3136       C  0.54605578  0.86218037  0.15956114     0.05300
C3137       C  0.53564048  0.84915272  0.18125238    -0.31700
O3138       O  0.54854610  0.79548615  0.20934820    -0.23500
C3139       C  0.56272399  0.79259746  0.19853838    -0.03500
C3140       C  0.57431304  0.80691984  0.17882986    -0.18000
H3141       H  0.58261084  0.84072384  0.14494044     0.20000
H3142       H  0.52724235  0.81517399  0.21528918     0.18400
H3143       H  0.52299779  0.84783096  0.19261911     0.18300
H3144       H  0.58641114  0.80781264  0.16651217     0.14200
C3145       C  0.64467251  0.81729169  0.32560253     0.29700
C3146       C  0.64866405  0.82402890  0.35314519    -0.36700
C3147       C  0.66664443  0.84154750  0.35753828     0.15600
C3148       C  0.67975163  0.85170911  0.33619091     0.21500
C3149       C  0.67578753  0.84487873  0.30855602    -0.34800
C3150       C  0.65770112  0.82732845  0.30412808     0.15600
O3151       O  0.62894475  0.80100395  0.31721707    -0.26800
C3152       C  0.63173165  0.80044312  0.28999768     0.05300
C3153       C  0.64936609  0.81653706  0.28045386    -0.31700
O3154       O  0.69487516  0.86859904  0.34464124    -0.23500
C3155       C  0.69143364  0.86924718  0.37168988    -0.03500
C3156       C  0.67415731  0.85268773  0.38099454    -0.18000
H3157       H  0.63833301  0.81624265  0.36991843     0.20000
H3158       H  0.68590870  0.85289285  0.29167977     0.18400
H3159       H  0.65550493  0.81934562  0.25961370     0.18300
H3160       H  0.66736865  0.85003594  0.40141017     0.14200
C3161       C  0.75158446  0.94155932  0.00876391     0.29700
C3162       C  0.74197273  0.92088502  0.01293112    -0.36700
C3163       C  0.74564474  0.90995526  0.99288474     0.15600
C3164       C  0.75831739  0.91879766  0.97061965     0.21500
C3165       C  0.76761075  0.93946577  0.96611525    -0.34800
C3166       C  0.76358267  0.95036178  0.98586639     0.15600
O3167       O  0.75080846  0.95463968  0.02549459    -0.26800
C3168       C  0.76211306  0.97204223  0.01290287     0.05300
C3169       C  0.77038879  0.97030542  0.98807293    -0.31700
O3170       O  0.76070983  0.90585544  0.95561449    -0.23500
C3171       C  0.74907613  0.88846621  0.96812267    -0.03500
C3172       C  0.73920315  0.89009487  0.99124960    -0.18000
H3173       H  0.73251841  0.91384222  0.03079780     0.20000
H3174       H  0.77752743  0.94658578  0.94869709     0.18400
H3175       H  0.78053798  0.98208747  0.97430569     0.18300
H3176       H  0.72942576  0.87845005  0.00547590     0.14200
C3177       C  0.72505615  0.69242792  0.91289413     0.29700
C3178       C  0.72024694  0.67527649  0.92887267    -0.36700
C3179       C  0.70691925  0.65678611  0.91665988     0.15600
C3180       C  0.69905117  0.65547945  0.89049441     0.21500
C3181       C  0.70428875  0.67246167  0.87431209    -0.34800
C3182       C  0.71741068  0.69080241  0.88650181     0.15600
O3183       O  0.73416108  0.71105594  0.92195347    -0.26800
C3184       C  0.73251798  0.72144022  0.90094279     0.05300
C3185       C  0.72223933  0.70953818  0.87841537    -0.31700
O3186       O  0.68464119  0.63741196  0.88465841    -0.23500
C3187       C  0.68325547  0.62664349  0.90701034    -0.03500
C3188       C  0.69690014  0.63786772  0.92766467    -0.18000
H3189       H  0.72528068  0.67634128  0.95013187     0.20000
H3190       H  0.69731129  0.67151060  0.85444107     0.18400
H3191       H  0.71702538  0.71375716  0.86016030     0.18300
H3192       H  0.69781166  0.63328429  0.94864591     0.14200
C3193       C  0.66484617  0.77224905  0.05697520     0.29700
C3194       C  0.64843540  0.75491210  0.06723361    -0.36700
C3195       C  0.63592478  0.75774331  0.08533248     0.15600
C3196       C  0.63944949  0.77636992  0.09317034     0.21500
C3197       C  0.65556439  0.79376648  0.08217699    -0.34800
C3198       C  0.66800766  0.79091961  0.06379857     0.15600
O3199       O  0.67845060  0.77294455  0.03993220    -0.26800
C3200       C  0.69045056  0.79228719  0.03551867     0.05300
C3201       C  0.68460236  0.80423789  0.04956253    -0.31700
O3202       O  0.62733071  0.77548762  0.11311717    -0.23500
C3203       C  0.61566975  0.75603911  0.11765436    -0.03500
C3204       C  0.62019956  0.74431371  0.10066700    -0.18000
H3205       H  0.64586645  0.74022534  0.06197853     0.20000
H3206       H  0.65853472  0.80846583  0.08818732     0.18400
H3207       H  0.69130238  0.82028494  0.04879138     0.18300
H3208       H  0.61416818  0.72834849  0.10159776     0.14200
C3209       C  0.65665899  0.82351713  0.85511564     0.29700
C3210       C  0.63951428  0.82511454  0.85568839    -0.36700
C3211       C  0.63351310  0.82891450  0.83002811     0.15600
C3212       C  0.64357493  0.83100512  0.80538708     0.21500
C3213       C  0.66054540  0.82908318  0.80473090    -0.34800
C3214       C  0.66655041  0.82529188  0.83041045     0.15600
O3215       O  0.66571136  0.82129346  0.87690447    -0.26800
C3216       C  0.68155841  0.82162126  0.86587038     0.05300
C3217       C  0.68270922  0.82389367  0.83706062    -0.31700
O3218       O  0.63606334  0.83595743  0.78425369    -0.23500
C3219       C  0.62097726  0.83695138  0.79562931    -0.03500
C3220       C  0.61866679  0.83260142  0.82395544    -0.18000
H3221       H  0.63176754  0.82412311  0.87489689     0.20000
H3222       H  0.66885678  0.83105391  0.78574322     0.18400
H3223       H  0.69419919  0.82502434  0.82312899     0.18300
H3224       H  0.60811124  0.83302624  0.83828099     0.14200
C3225       C  0.77658040  0.80457008  0.76904020     0.29700
C3226       C  0.77318452  0.80742301  0.74112768    -0.36700
C3227       C  0.78019045  0.79925459  0.72112959     0.15600
C3228       C  0.79000107  0.78916620  0.72828710     0.21500
C3229       C  0.79360593  0.78653459  0.75615214    -0.34800
C3230       C  0.78643505  0.79452103  0.77614977     0.15600
O3231       O  0.76988548  0.80952255  0.79098018    -0.26800
C3232       C  0.77544930  0.80256282  0.81248001     0.05300
C3233       C  0.78592716  0.79315273  0.80454274    -0.31700
O3234       O  0.79410557  0.78159418  0.70654399    -0.23500
C3235       C  0.78687407  0.78684316  0.68510058    -0.03500
C3236       C  0.77809016  0.79797096  0.69283101    -0.18000
H3237       H  0.76497516  0.81480501  0.73547241     0.20000
H3238       H  0.80081066  0.77815809  0.76183708     0.18400
H3239       H  0.79146482  0.78560810  0.81760252     0.18300
H3240       H  0.77059252  0.80353665  0.67973983     0.14200
C3241       C  0.74850734  0.85521254  0.48922458     0.29700
C3242       C  0.74258235  0.83977668  0.50864334    -0.36700
C3243       C  0.75186394  0.82832790  0.50638083     0.15600
C3244       C  0.76556301  0.83135542  0.48585617     0.21500
C3245       C  0.77149069  0.84683412  0.46636119    -0.34800
C3246       C  0.76269339  0.85877176  0.46922736     0.15600
O3247       O  0.74235431  0.86824567  0.48839069    -0.26800
C3248       C  0.75301717  0.88061454  0.46800716     0.05300
C3249       C  0.76597751  0.87551798  0.45532449    -0.31700
O3250       O  0.77293978  0.81934265  0.48846861    -0.23500
C3251       C  0.76401728  0.80876954  0.51117051    -0.03500
C3252       C  0.75082131  0.81375699  0.52319683    -0.18000
H3253       H  0.73198612  0.83731367  0.52498816     0.20000
H3254       H  0.78269753  0.84981412  0.45074821     0.18400
H3255       H  0.77614391  0.88295194  0.43825593     0.18300
H3256       H  0.74220449  0.80790095  0.54209353     0.14200
C3257       C  0.67605920  0.72730872  0.61046128     0.29700
C3258       C  0.65851643  0.71408774  0.62447582    -0.36700
C3259       C  0.64070988  0.70913964  0.61082755     0.15600
C3260       C  0.63997787  0.71669755  0.58510151     0.21500
C3261       C  0.65762744  0.73046183  0.57138405    -0.34800
C3262       C  0.67557583  0.73541085  0.58506722     0.15600
O3263       O  0.69407661  0.73117737  0.61736259    -0.26800
C3264       C  0.70556313  0.74240601  0.59659315     0.05300
C3265       C  0.69483903  0.74554702  0.57589364    -0.31700
O3266       O  0.62176124  0.70771081  0.57452461    -0.23500
C3267       C  0.61080833  0.69435688  0.59391832    -0.03500
C3268       C  0.62188247  0.69473556  0.61686662    -0.18000
H3269       H  0.65874458  0.70695092  0.64374934     0.20000
H3270       H  0.65743601  0.73583749  0.55064818     0.18400
H3271       H  0.70011637  0.75229454  0.55564399     0.18300
H3272       H  0.61699388  0.68456711  0.63439273     0.14200
C3273       C  0.67148298  0.55559854  0.10337149     0.29700
C3274       C  0.67806221  0.55836400  0.07557961    -0.36700
C3275       C  0.66345905  0.55357673  0.05521207     0.15600
C3276       C  0.64379608  0.54648507  0.06198867     0.21500
C3277       C  0.63720150  0.54355438  0.08971756    -0.34800
C3278       C  0.65178580  0.54840692  0.11003786     0.15600
O3279       O  0.68276061  0.56020537  0.12560572    -0.26800
C3280       C  0.67017328  0.55582708  0.14682534     0.05300
C3281       C  0.65062596  0.54837427  0.13842511    -0.31700
O3282       O  0.63274557  0.54367657  0.03995950    -0.23500
C3283       C  0.64535574  0.54902982  0.01862547    -0.03500
C3284       C  0.66477026  0.55529143  0.02678606    -0.18000
H3285       H  0.69355075  0.56431080  0.07027518     0.20000
H3286       H  0.62183230  0.53829824  0.09505536     0.18400
H3287       H  0.63769539  0.54439135  0.15122843     0.18300
H3288       H  0.67785382  0.56056395  0.01382952     0.14200
C3289       C  0.59497520  0.51174077  0.32918121     0.29700
C3290       C  0.57424559  0.50227687  0.32733146    -0.36700
C3291       C  0.56359297  0.48554884  0.34441912     0.15600
C3292       C  0.57257132  0.47830861  0.36198625     0.21500
C3293       C  0.59340862  0.48804033  0.36423317    -0.34800
C3294       C  0.60412193  0.50505257  0.34739362     0.15600
O3295       O  0.60774573  0.52691142  0.31384358    -0.26800
C3296       C  0.62537682  0.53035504  0.32273907     0.05300
C3297       C  0.62406367  0.51733300  0.34374851    -0.31700
O3298       O  0.55950274  0.46197817  0.37536680    -0.23500
C3299       C  0.54197203  0.45896548  0.36637175    -0.03500
C3300       C  0.54373024  0.47324604  0.34721349    -0.18000
H3301       H  0.56690842  0.50742073  0.31320194     0.20000
H3302       H  0.60075779  0.48262539  0.37788247     0.18400
H3303       H  0.63605431  0.51636366  0.35367312     0.18300
H3304       H  0.53198430  0.47426850  0.33660258     0.14200
C3305       C  0.74440787  0.65380125  0.40260594     0.29700
C3306       C  0.74041205  0.66642488  0.41893186    -0.36700
C3307       C  0.75670073  0.68164554  0.43309151     0.15600
C3308       C  0.77549910  0.68396226  0.43188363     0.21500
C3309       C  0.77954602  0.67158450  0.41513197    -0.34800
C3310       C  0.76336543  0.65662578  0.40053541     0.15600
O3311       O  0.73161596  0.63913296  0.38671135    -0.26800
C3312       C  0.74257147  0.63262860  0.37409146     0.05300
C3313       C  0.76244670  0.64301141  0.38180619    -0.31700
O3314       O  0.78822521  0.69829797  0.44831495    -0.23500
C3315       C  0.77757505  0.70564200  0.45952543    -0.03500
C3316       C  0.75789746  0.69593573  0.45073998    -0.18000
H3317       H  0.72568640  0.66459848  0.42033551     0.20000
H3318       H  0.79428986  0.67348618  0.41358389     0.18400
H3319       H  0.77455868  0.64129445  0.37389247     0.18300
H3320       H  0.74597164  0.69829487  0.45772564     0.14200
C3321       C  0.61598892  0.60812159  0.22506828     0.29700
C3322       C  0.60983886  0.61954162  0.20985083    -0.36700
C3323       C  0.59921537  0.62681471  0.22469021     0.15600
C3324       C  0.59459330  0.62292714  0.25260079     0.21500
C3325       C  0.60015655  0.61087432  0.26761821    -0.34800
C3326       C  0.61103508  0.60377872  0.25282308     0.15600
O3327       O  0.62917926  0.60320213  0.21669390    -0.26800
C3328       C  0.63242277  0.59515963  0.23913317     0.05300
C3329       C  0.62152306  0.59511361  0.26218812    -0.31700
O3330       O  0.58747160  0.63389371  0.26328150    -0.23500
C3331       C  0.58749904  0.64484718  0.24184967    -0.03500
C3332       C  0.59456732  0.64095254  0.21741099    -0.18000
H3333       H  0.61454940  0.62395475  0.18854370     0.20000
H3334       H  0.59766977  0.60859855  0.28982769     0.18400
H3335       H  0.62296651  0.59144108  0.28349091     0.18300
H3336       H  0.59762070  0.64883609  0.19777672     0.14200
C3337       C  0.82999384  0.56262289  0.32109942     0.29700
C3338       C  0.81314472  0.55500127  0.30398416    -0.36700
C3339       C  0.80235836  0.56510340  0.30479330     0.15600
C3340       C  0.80801071  0.58189125  0.32076789     0.21500
C3341       C  0.82486991  0.58951745  0.33793812    -0.34800
C3342       C  0.83537721  0.57909885  0.33766565     0.15600
O3343       O  0.84143428  0.55470769  0.32492983    -0.26800
C3344       C  0.85414085  0.56607447  0.34451667     0.05300
C3345       C  0.85107888  0.58147719  0.35322037    -0.31700
O3346       O  0.79547404  0.58869182  0.31872915    -0.23500
C3347       C  0.78144854  0.57590100  0.30154273    -0.03500
C3348       C  0.78497794  0.56092130  0.29228096    -0.18000
H3349       H  0.80840459  0.54172615  0.29158148     0.20000
H3350       H  0.82913473  0.60229632  0.35123535     0.18400
H3351       H  0.85892973  0.59244604  0.36925234     0.18300
H3352       H  0.77594630  0.54864970  0.27848556     0.14200
C3353       C  0.14944835  0.73308005  0.15860919     0.29700
C3354       C  0.15780576  0.75384886  0.15741372    -0.36700
C3355       C  0.17488547  0.76505156  0.17354315     0.15600
C3356       C  0.18346820  0.75647367  0.18933428     0.21500
C3357       C  0.17488792  0.73563891  0.19093727    -0.34800
C3358       C  0.15752807  0.72439706  0.17522850     0.15600
O3359       O  0.13383439  0.71985517  0.14452514    -0.26800
C3360       C  0.13155404  0.70240545  0.15267429     0.05300
C3361       C  0.14582304  0.70429672  0.17184789    -0.31700
O3362       O  0.19999095  0.76989643  0.20164274    -0.23500
C3363       C  0.20181901  0.78728700  0.19395435    -0.03500
C3364       C  0.18651782  0.78512912  0.17665810    -0.18000
H3365       H  0.15153092  0.76080837  0.14457041     0.20000
H3366       H  0.18137788  0.72868664  0.20335854     0.18400
H3367       H  0.14770629  0.69259368  0.18108217     0.18300
H3368       H  0.18456410  0.79671514  0.16716873     0.14200
C3369       C  0.00391058  0.58049144  0.23153380     0.29700
C3370       C  0.98911084  0.58294960  0.24452551    -0.36700
C3371       C  0.97609763  0.56736247  0.26199032     0.15600
C3372       C  0.97777772  0.55069895  0.26690572     0.21500
C3373       C  0.99232480  0.54804275  0.25343264    -0.34800
C3374       C  0.00512152  0.56347217  0.23552042     0.15600
O3375       O  0.01740972  0.59303424  0.21396650    -0.26800
C3376       C  0.02726903  0.58385141  0.20637501     0.05300
C3377       C  0.02017257  0.56532846  0.21890448    -0.31700
O3378       O  0.96494867  0.53872565  0.28567462    -0.23500
C3379       C  0.95464390  0.54764224  0.29229850    -0.03500
C3380       C  0.96083154  0.56541740  0.27805491    -0.18000
H3381       H  0.98784656  0.59610353  0.24127544     0.20000
H3382       H  0.99365529  0.53494138  0.25681112     0.18400
H3383       H  0.02511352  0.55465054  0.21572009     0.18300
H3384       H  0.95567164  0.57598332  0.28057660     0.14200
C3385       C  0.81771447  0.77923855  0.01202615     0.29700
C3386       C  0.83426234  0.78651245  0.02978604    -0.36700
C3387       C  0.84572165  0.77711765  0.02786412     0.15600
C3388       C  0.84092088  0.76128833  0.01024133     0.21500
C3389       C  0.82444806  0.75407245  0.99242903    -0.34800
C3390       C  0.81329311  0.76378450  0.99384294     0.15600
O3391       O  0.80591586  0.78683318  0.00876449    -0.26800
C3392       C  0.79394782  0.77627488  0.98797646     0.05300
C3393       C  0.79789661  0.76175702  0.97788398    -0.31700
O3394       O  0.85372673  0.75481639  0.01165085    -0.23500
C3395       C  0.86713178  0.76685595  0.03008348    -0.03500
C3396       C  0.86294839  0.78107728  0.04079239    -0.18000
H3397       H  0.83830504  0.79905737  0.04346550     0.20000
H3398       H  0.82093454  0.74211491  0.97785403     0.18400
H3399       H  0.79098659  0.75177502  0.96048847     0.18300
H3400       H  0.87132465  0.79255338  0.05599545     0.14200
C3401       C  0.07411030  0.86210666  0.97353371     0.29700
C3402       C  0.05337939  0.85207077  0.97067607    -0.36700
C3403       C  0.04270777  0.83562424  0.98827561     0.15600
C3404       C  0.05178623  0.82977490  0.00784201     0.21500
C3405       C  0.07255193  0.83952698  0.01023563    -0.34800
C3406       C  0.08324092  0.85569972  0.99220438     0.15600
O3407       O  0.08691484  0.87817340  0.95976853    -0.26800
C3408       C  0.10448770  0.88184616  0.96931707     0.05300
C3409       C  0.10314651  0.86831253  0.98944235    -0.31700
O3410       O  0.03887104  0.81497677  0.02357443    -0.23500
C3411       C  0.02130612  0.81098446  0.01351096    -0.03500
C3412       C  0.02278185  0.82324726  0.99138273    -0.18000
H3413       H  0.04607111  0.85690986  0.95601982     0.20000
H3414       H  0.07984879  0.83501307  0.02538217     0.18400
H3415       H  0.11507120  0.86815510  0.00086052     0.18300
H3416       H  0.01088099  0.82361584  0.98020392     0.14200
C3417       C  0.83705407  0.69482983  0.16209562     0.29700
C3418       C  0.82896079  0.68995159  0.18905994    -0.36700
C3419       C  0.81062372  0.67233673  0.19148332     0.15600
C3420       C  0.80091149  0.66055485  0.16880949     0.21500
C3421       C  0.80884445  0.66557182  0.14185156    -0.34800
C3422       C  0.82723072  0.68306359  0.13946001     0.15600
O3423       O  0.85480348  0.70954468  0.15548501    -0.26800
C3424       C  0.85637510  0.70724229  0.12827711     0.05300
C3425       C  0.83957123  0.69108299  0.11710313    -0.31700
O3426       O  0.78441179  0.64436343  0.17581042    -0.23500
C3427       C  0.78347672  0.64565922  0.20332791    -0.03500
C3428       C  0.79936982  0.66280038  0.21433958    -0.18000
H3429       H  0.83676554  0.69886629  0.20700112     0.20000
H3430       H  0.80149164  0.65612546  0.12412684     0.18400
H3431       H  0.83731445  0.68536403  0.09606198     0.18300
H3432       H  0.80229472  0.66738521  0.23591156     0.14200
C3433       C  0.03364448  0.73540491  0.09217693     0.29700
C3434       C  0.04730816  0.73208625  0.07699602    -0.36700
C3435       C  0.05118711  0.71739814  0.08763790     0.15600
C3436       C  0.04228507  0.70700038  0.11170572     0.21500
C3437       C  0.02922213  0.71071753  0.12721790    -0.34800
C3438       C  0.02517807  0.72507662  0.11646099     0.15600
O3439       O  0.02505728  0.74550227  0.08348813    -0.26800
C3440       C  0.01103749  0.74158419  0.10251321     0.05300
C3441       C  0.01052978  0.72901637  0.12348916    -0.31700
O3442       O  0.04536061  0.69201997  0.11590377    -0.23500
C3443       C  0.05660776  0.69269873  0.09458817    -0.03500
C3444       C  0.06096780  0.70836113  0.07629195    -0.18000
H3445       H  0.05318859  0.73923268  0.05713228     0.20000
H3446       H  0.02140429  0.70176350  0.14518315     0.18400
H3447       H  0.99948144  0.72200104  0.13972338     0.18300
H3448       H  0.06853415  0.71142741  0.05642756     0.14200
C3449       C  0.89243768  0.55964134  0.56195731     0.29700
C3450       C  0.89486726  0.55565483  0.58972307    -0.36700
C3451       C  0.88825622  0.56402462  0.60990786     0.15600
C3452       C  0.87985115  0.57550185  0.60306445     0.21500
C3453       C  0.87728973  0.57936818  0.57526555    -0.34800
C3454       C  0.88389086  0.57097878  0.55505842     0.15600
O3455       O  0.89774439  0.55341888  0.53993849    -0.26800
C3456       C  0.89253675  0.56076739  0.51856332     0.05300
C3457       C  0.88374947  0.57181699  0.52662758    -0.31700
O3458       O  0.87449681  0.58165412  0.62515362    -0.23500
C3459       C  0.87944929  0.57400808  0.64645701    -0.03500
C3460       C  0.88813462  0.56289243  0.63828610    -0.18000
H3461       H  0.90144693  0.54665209  0.59516415     0.20000
H3462       H  0.87059010  0.58825894  0.56981790     0.18400
H3463       H  0.87817881  0.57933577  0.51357360     0.18300
H3464       H  0.89325328  0.55492777  0.65125277     0.14200
C3465       C  0.75081359  0.57776876  0.82065210     0.29700
C3466       C  0.74145128  0.58460570  0.83895006    -0.36700
C3467       C  0.72069295  0.57496421  0.83741448     0.15600
C3468       C  0.70977924  0.55988246  0.81872721     0.21500
C3469       C  0.71918418  0.55291323  0.80046750    -0.34800
C3470       C  0.74001652  0.56229800  0.80244530     0.15600
O3471       O  0.77007314  0.58455911  0.81897967    -0.26800
C3472       C  0.77177116  0.57316082  0.79971046     0.05300
C3473       C  0.75352892  0.55894194  0.78875766    -0.31700
O3474       O  0.69041685  0.55266338  0.82160450    -0.23500
C3475       C  0.68901408  0.56311216  0.84269138    -0.03500
C3476       C  0.70738683  0.57713250  0.85328110    -0.18000
H3477       H  0.74977032  0.59639144  0.85377470     0.20000
H3478       H  0.71083262  0.54076625  0.78616333     0.18400
H3479       H  0.75069861  0.54794964  0.77284885     0.18300
H3480       H  0.71043889  0.58712527  0.87068177     0.14200
C3481       C  0.81875982  0.64926565  0.67222650     0.29700
C3482       C  0.81695822  0.65429506  0.64472537    -0.36700
C3483       C  0.81532440  0.67137762  0.64151626     0.15600
C3484       C  0.81536031  0.68252180  0.66395199     0.21500
C3485       C  0.81721183  0.67752453  0.69138175    -0.34800
C3486       C  0.81890811  0.66051986  0.69458696     0.15600
O3487       O  0.82171373  0.63469402  0.67983753    -0.26800
C3488       C  0.82379527  0.63661410  0.70736554     0.05300
C3489       C  0.82208149  0.65238086  0.71782501    -0.31700
O3490       O  0.81357804  0.69780260  0.65640684    -0.23500
C3491       C  0.81244522  0.69659090  0.62879590    -0.03500
C3492       C  0.81350711  0.68044941  0.61818938    -0.18000
H3493       H  0.81716416  0.64569103  0.62710643     0.20000
H3494       H  0.81755485  0.68643822  0.70894659     0.18400
H3495       H  0.82412426  0.65777217  0.73903004     0.18300
H3496       H  0.81279211  0.67596725  0.59668462     0.14200
C3497       C  0.87032767  0.65372117  0.90497429     0.29700
C3498       C  0.86685038  0.66673574  0.92118376    -0.36700
C3499       C  0.88303303  0.68087692  0.93670839     0.15600
C3500       C  0.90145680  0.68228565  0.93617376     0.21500
C3501       C  0.90481536  0.66896322  0.92048885    -0.34800
C3502       C  0.88853694  0.65463665  0.90525340     0.15600
O3503       O  0.85774495  0.64029222  0.88734520    -0.26800
C3504       C  0.86788814  0.63218426  0.87670401     0.05300
C3505       C  0.88704285  0.64037891  0.88730533    -0.31700
O3506       O  0.91444180  0.69665362  0.95232402    -0.23500
C3507       C  0.90411352  0.70438689  0.96354408    -0.03500
C3508       C  0.88448938  0.69512163  0.95464815    -0.18000
H3509       H  0.85259454  0.66605077  0.92141112     0.20000
H3510       H  0.91913210  0.66977713  0.92006393     0.18400
H3511       H  0.89861179  0.63723360  0.88115532     0.18300
H3512       H  0.87288428  0.69814075  0.96104612     0.14200
C3513       C  0.99319215  0.79232769  0.22269060     0.29700
C3514       C  0.00892278  0.80396439  0.24064401    -0.36700
C3515       C  0.00447641  0.80112738  0.26912857     0.15600
C3516       C  0.98592777  0.78772229  0.27950863     0.21500
C3517       C  0.97016776  0.77609443  0.26156061    -0.34800
C3518       C  0.97460752  0.77899000  0.23304881     0.15600
O3519       O  0.99383571  0.79273509  0.19518790    -0.26800
C3520       C  0.97535586  0.77951564  0.18797965     0.05300
C3521       C  0.96285973  0.77048746  0.21068724    -0.31700
O3522       O  0.98549671  0.78691788  0.30699176    -0.23500
C3523       C  0.00403623  0.80005287  0.31411732    -0.03500
C3524       C  0.01636726  0.80939185  0.29140985    -0.18000
H3525       H  0.02360978  0.81445815  0.23298600     0.20000
H3526       H  0.95553009  0.76545920  0.26923433     0.18400
H3527       H  0.94721535  0.75942934  0.21067061     0.18300
H3528       H  0.03212631  0.82005510  0.29132637     0.14200
C3529       C  0.13362941  0.92231346  0.47471991     0.29700
C3530       C  0.14435651  0.94298697  0.47019702    -0.36700
C3531       C  0.16108741  0.95384918  0.48713870     0.15600
C3532       C  0.16667067  0.94498825  0.50742263     0.21500
C3533       C  0.15629847  0.92426754  0.51137971    -0.34800
C3534       C  0.13972736  0.91340368  0.49423276     0.15600
O3535       O  0.11716144  0.90938321  0.46191343    -0.26800
C3536       C  0.11285042  0.89194533  0.47308983     0.05300
C3537       C  0.12643896  0.89352327  0.49317958    -0.31700
O3538       O  0.18160882  0.95810425  0.52262792    -0.23500
C3539       C  0.18595668  0.97559968  0.51161391    -0.03500
C3540       C  0.17380394  0.97386179  0.48926365    -0.18000
H3541       H  0.13973112  0.95014959  0.45496398     0.20000
H3542       H  0.16055585  0.91716411  0.52720536     0.18400
H3543       H  0.12634070  0.88174789  0.50545807     0.18300
H3544       H  0.17357546  0.98567737  0.47751786     0.14200
C3545       C  0.92824305  0.76627722  0.49154553     0.29700
C3546       C  0.90763410  0.75623944  0.48703749    -0.36700
C3547       C  0.89640231  0.76047395  0.50588289     0.15600
C3548       C  0.90488764  0.77385675  0.52746648     0.21500
C3549       C  0.92543308  0.78347120  0.53241413    -0.34800
C3550       C  0.93664098  0.77905624  0.51378049     0.15600
O3551       O  0.94167829  0.76572992  0.47530449    -0.26800
C3552       C  0.95888837  0.77799635  0.48760681     0.05300
C3553       C  0.95664922  0.78659083  0.51175316    -0.31700
O3554       O  0.89175728  0.77653688  0.54145702    -0.23500
C3555       C  0.87457049  0.76444395  0.52898109    -0.03500
C3556       C  0.87655132  0.75398924  0.50682434    -0.18000
H3557       H  0.90088824  0.74624246  0.46961509     0.20000
H3558       H  0.93227158  0.79404354  0.54920558     0.18400
H3559       H  0.96816279  0.79771460  0.52484911     0.18300
H3560       H  0.86510092  0.74360385  0.49293993     0.14200
C3561       C  0.14872662  0.84264437  0.35687843     0.29700
C3562       C  0.16520278  0.83990910  0.35576385    -0.36700
C3563       C  0.17418849  0.84259768  0.32961798     0.15600
C3564       C  0.16763848  0.84777471  0.30604588     0.21500
C3565       C  0.15112708  0.85054275  0.30715115    -0.34800
C3566       C  0.14207976  0.84780858  0.33338089     0.15600
O3567       O  0.13724385  0.83948740  0.37877018    -0.26800
C3568       C  0.12302824  0.84269036  0.36922684     0.05300
C3569       C  0.12541951  0.84811078  0.34118369    -0.31700
O3570       O  0.17888056  0.85022249  0.28402867    -0.23500
C3571       C  0.19272341  0.84649235  0.29379949    -0.03500
C3572       C  0.19038815  0.84154094  0.32193612    -0.18000
H3573       H  0.17050917  0.83572650  0.37394848     0.20000
H3574       H  0.14565530  0.85444223  0.28887158     0.18400
H3575       H  0.11554109  0.85055908  0.32800071     0.18300
H3576       H  0.19983856  0.83847648  0.33514104     0.14200
C3577       C  0.94203797  0.65788697  0.38910771     0.29700
C3578       C  0.95473833  0.67491814  0.37372067    -0.36700
C3579       C  0.95730405  0.69297423  0.38382236     0.15600
C3580       C  0.94800064  0.69431761  0.40754593     0.21500
C3581       C  0.93469957  0.67705106  0.42255589    -0.34800
C3582       C  0.93212563  0.65883387  0.41239874     0.15600
O3583       O  0.93970562  0.64006455  0.38514804    -0.26800
C3584       C  0.92783325  0.62911017  0.40577471     0.05300
C3585       C  0.92242935  0.63992153  0.42339374    -0.31700
O3586       O  0.95548148  0.71298303  0.41598324    -0.23500
C3587       C  0.96958139  0.72360291  0.39726063    -0.03500
C3588       C  0.97116039  0.71186807  0.37673120    -0.18000
H3589       H  0.96320393  0.67429770  0.35621252     0.20000
H3590       H  0.92799315  0.67790582  0.44188796     0.18400
H3591       H  0.91393398  0.63497737  0.44250828     0.18300
H3592       H  0.98264201  0.71640040  0.36103953     0.14200
C3593       C  0.10492471  0.67672543  0.94562518     0.29700
C3594       C  0.11458392  0.69326643  0.92795650    -0.36700
C3595       C  0.11293646  0.68908709  0.89934788     0.15600
C3596       C  0.10248358  0.67001724  0.88869425     0.21500
C3597       C  0.09286140  0.65350335  0.90632640    -0.34800
C3598       C  0.09454540  0.65767803  0.93489515     0.15600
O3599       O  0.10440915  0.67703781  0.97314423    -0.26800
C3600       C  0.09353619  0.65789915  0.97998249     0.05300
C3601       C  0.08705468  0.64527185  0.95698013    -0.31700
O3602       O  0.10240248  0.66965075  0.86121649    -0.23500
C3603       C  0.11297417  0.68876072  0.85424401    -0.03500
C3604       C  0.11995466  0.70147795  0.87712224    -0.18000
H3605       H  0.12270200  0.70832498  0.93590837     0.20000
H3606       H  0.08451496  0.63846645  0.89834822     0.18400
H3607       H  0.07809995  0.62918041  0.95660984     0.18300
H3608       H  0.12853072  0.71759510  0.87730474     0.14200
C3609       C  0.27142185  0.84321584  0.67625070     0.29700
C3610       C  0.26190590  0.82746379  0.69538039    -0.36700
C3611       C  0.24113417  0.81604849  0.69323068     0.15600
C3612       C  0.23042388  0.82007379  0.67396517     0.21500
C3613       C  0.23992563  0.83567151  0.65473235    -0.34800
C3614       C  0.26067991  0.84683347  0.65654310     0.15600
O3615       O  0.29077705  0.85531897  0.67365764    -0.26800
C3616       C  0.29237882  0.86664185  0.65180155     0.05300
C3617       C  0.27414769  0.86194870  0.64031234    -0.31700
O3618       O  0.21117156  0.80746362  0.67550146    -0.23500
C3619       C  0.20953120  0.79500010  0.69575171    -0.03500
C3620       C  0.22768008  0.79958042  0.70750553    -0.18000
H3621       H  0.27013481  0.82408796  0.71048833     0.20000
H3622       H  0.23173587  0.83865685  0.63907867     0.18400
H3623       H  0.27130352  0.86847492  0.62220775     0.18300
H3624       H  0.23049865  0.79188668  0.72414387     0.14200
C3625       C  0.01119951  0.62868836  0.75041425     0.29700
C3626       C  0.99416193  0.61569171  0.73503161    -0.36700
C3627       C  0.97579130  0.61047180  0.74746595     0.15600
C3628       C  0.97451501  0.61753738  0.77332864     0.21500
C3629       C  0.99140773  0.62998085  0.78892769    -0.34800
C3630       C  0.00963143  0.63532837  0.77644977     0.15600
O3631       O  0.02963805  0.63812537  0.74101051    -0.26800
C3632       C  0.03990058  0.65069535  0.76144369     0.05300
C3633       C  0.02820379  0.64963843  0.78391585    -0.31700
O3634       O  0.95647799  0.61370893  0.77926369    -0.23500
C3635       C  0.94580232  0.60383719  0.75724891    -0.03500
C3636       C  0.95691734  0.60109723  0.73675775    -0.18000
H3637       H  0.99518386  0.61127070  0.71399792     0.20000
H3638       H  0.99041813  0.63639432  0.80846922     0.18400
H3639       H  0.03244274  0.65945003  0.80176035     0.18300
H3640       H  0.95226001  0.59509634  0.71603293     0.14200
C3641       C  0.09533263  0.75838499  0.59353665     0.29700
C3642       C  0.07855753  0.75470257  0.57801728    -0.36700
C3643       C  0.08035679  0.77064262  0.56194949     0.15600
C3644       C  0.09765160  0.78882384  0.56055765     0.21500
C3645       C  0.11438326  0.79260013  0.57634877    -0.34800
C3646       C  0.11242173  0.77677602  0.59295884     0.15600
O3647       O  0.09646088  0.74595606  0.61123320    -0.26800
C3648       C  0.11441085  0.75656418  0.62245016     0.05300
C3649       C  0.12500231  0.77586878  0.61190242    -0.31700
O3650       O  0.09624237  0.80130025  0.54320729    -0.23500
C3651       C  0.07765682  0.79107746  0.53389017    -0.03500
C3652       C  0.06706436  0.77198464  0.54498306    -0.18000
H3653       H  0.06492143  0.74049928  0.57880621     0.20000
H3654       H  0.12788356  0.80693379  0.57598356     0.18400
H3655       H  0.13950120  0.78772256  0.61815649     0.18300
H3656       H  0.05202516  0.76050080  0.54027225     0.14200
C3657       C  0.16512432  0.86134062  0.82958538     0.29700
C3658       C  0.16307366  0.85387906  0.80243733    -0.36700
C3659       C  0.16229005  0.83549594  0.80003113     0.15600
C3660       C  0.16351541  0.82531690  0.82285093     0.21500
C3661       C  0.16567089  0.83281093  0.84992459    -0.34800
C3662       C  0.16632578  0.85109907  0.85233710     0.15600
O3663       O  0.16588712  0.87808322  0.83667533    -0.26800
C3664       C  0.16750545  0.87853339  0.86429132     0.05300
C3665       C  0.16784605  0.86211497  0.87525629    -0.31700
O3666       O  0.16098652  0.80779927  0.81623771    -0.23500
C3667       C  0.15811797  0.80665803  0.78886693    -0.03500
C3668       C  0.15891707  0.82352820  0.77746668    -0.18000
H3669       H  0.16177022  0.86166285  0.78455978     0.20000
H3670       H  0.16626926  0.82468597  0.86789474     0.18400
H3671       H  0.16920463  0.85889688  0.89681604     0.18300
H3672       H  0.15608766  0.82600074  0.75618827     0.14200
C3673       C  0.23767428  0.44046876  0.19641387     0.29700
C3674       C  0.25812991  0.44879063  0.20144429    -0.36700
C3675       C  0.26900462  0.44527625  0.18102493     0.15600
C3676       C  0.26038804  0.43460178  0.15708628     0.21500
C3677       C  0.23990572  0.42599426  0.15230308    -0.34800
C3678       C  0.22899374  0.42921883  0.17291451     0.15600
O3679       O  0.22478270  0.44235747  0.21225979    -0.26800
C3680       C  0.20756337  0.43183646  0.19898897     0.05300
C3681       C  0.20928365  0.42326717  0.17446671    -0.31700
O3682       O  0.27350033  0.43431763  0.13986852    -0.23500
C3683       C  0.29075575  0.44468704  0.15307220    -0.03500
C3684       C  0.28883757  0.45173171  0.17890996    -0.18000
H3685       H  0.26512729  0.45763095  0.21978838     0.20000
H3686       H  0.23300161  0.41761539  0.13359031     0.18400
H3687       H  0.19776210  0.41442466  0.15958874     0.18300
H3688       H  0.30048768  0.46109557  0.19331981     0.14200
C3689       C  0.08555274  0.52592652  0.15905631     0.29700
C3690       C  0.07956005  0.51106545  0.17950681    -0.36700
C3691       C  0.08756261  0.49841600  0.17732473     0.15600
C3692       C  0.10036011  0.50002514  0.15622611     0.21500
C3693       C  0.10653503  0.51507666  0.13589747    -0.34800
C3694       C  0.09878549  0.52799641  0.13835088     0.15600
O3695       O  0.07980870  0.53927166  0.15717434    -0.26800
C3696       C  0.08971575  0.55034199  0.13526556     0.05300
C3697       C  0.10186118  0.54409190  0.12275692    -0.31700
O3698       O  0.10642169  0.48689186  0.15872163    -0.23500
C3699       C  0.09753218  0.47690508  0.18188102    -0.03500
C3700       C  0.08565293  0.48348424  0.19431318    -0.18000
H3701       H  0.06953331  0.50962363  0.19617696     0.20000
H3702       H  0.11689539  0.51678824  0.11958480     0.18400
H3703       H  0.11116599  0.55019650  0.10450739     0.18300
H3704       H  0.07734575  0.47841196  0.21358108     0.14200
C3705       C  0.14292345  0.33787527  0.31529338     0.29700
C3706       C  0.13881269  0.31809243  0.31686925    -0.36700
C3707       C  0.14203272  0.31193193  0.34288297     0.15600
C3708       C  0.14881973  0.32432692  0.36578872     0.21500
C3709       C  0.15274259  0.34399726  0.36428854    -0.34800
C3710       C  0.14959779  0.35015395  0.33830960     0.15600
O3711       O  0.14077176  0.34681525  0.29319660    -0.26800
C3712       C  0.14614949  0.36503373  0.30233097     0.05300
C3713       C  0.15184861  0.36789619  0.33018075    -0.31700
O3714       O  0.15262746  0.31612714  0.38720502    -0.23500
C3715       C  0.14822632  0.29823949  0.37791181    -0.03500
C3716       C  0.14132472  0.29472787  0.35059349    -0.18000
H3717       H  0.13381069  0.30830745  0.29898144     0.20000
H3718       H  0.15833627  0.35396718  0.38194988     0.18400
H3719       H  0.15632978  0.38099835  0.34289114     0.18300
H3720       H  0.13793487  0.28201508  0.33757475     0.14200
C3721       C  0.12960296  0.23053483  0.97871107     0.29700
C3722       C  0.13880579  0.21891214  0.97645580    -0.36700
C3723       C  0.15568620  0.22478743  0.99308585     0.15600
C3724       C  0.16279480  0.24076586  0.01109466     0.21500
C3725       C  0.15379546  0.25256838  0.01301678    -0.34800
C3726       C  0.13712764  0.24689391  0.99605809     0.15600
O3727       O  0.11341846  0.22752406  0.96553741    -0.26800
C3728       C  0.11072949  0.24234071  0.97424724     0.05300
C3729       C  0.12508323  0.25488164  0.99317359    -0.31700
O3730       O  0.17811191  0.24297280  0.02575785    -0.23500
C3731       C  0.18110995  0.22845143  0.01666197    -0.03500
C3732       C  0.16766598  0.21671884  0.99623052    -0.18000
H3733       H  0.13310578  0.20608653  0.96287228     0.20000
H3734       H  0.15928955  0.26518249  0.02697052     0.18400
H3735       H  0.12619779  0.26775058  0.00371261     0.18300
H3736       H  0.16648219  0.20373064  0.98596931     0.14200
C3737       C  0.93642481  0.17392526  0.01519251     0.29700
C3738       C  0.92702891  0.15624086  0.03102421    -0.36700
C3739       C  0.90620199  0.14486077  0.02874417     0.15600
C3740       C  0.89538363  0.15075395  0.01254113     0.21500
C3741       C  0.90475349  0.16826771  0.99660983    -0.34800
C3742       C  0.92551884  0.17937862  0.99841805     0.15600
O3743       O  0.95578972  0.18622088  0.01273531    -0.26800
C3744       C  0.95723591  0.19956709  0.99392160     0.05300
C3745       C  0.93886091  0.19595640  0.98428979    -0.31700
O3746       O  0.87609840  0.13818865  0.01377918    -0.23500
C3747       C  0.87441553  0.12379742  0.03067012    -0.03500
C3748       C  0.89269592  0.12707981  0.04049274    -0.18000
H3749       H  0.93539028  0.15147429  0.04374041     0.20000
H3750       H  0.89643221  0.17274535  0.98330290     0.18400
H3751       H  0.93584111  0.20393949  0.96829699     0.18300
H3752       H  0.89553639  0.11794817  0.05472557     0.14200
C3753       C  0.08004031  0.32014842  0.07699926     0.29700
C3754       C  0.07570844  0.33184652  0.09473830    -0.36700
C3755       C  0.09203603  0.34816296  0.10710328     0.15600
C3756       C  0.11135625  0.35241482  0.10311168     0.21500
C3757       C  0.11574361  0.34086026  0.08494820    -0.34800
C3758       C  0.09936585  0.32474524  0.07198756     0.15600
O3759       O  0.06703867  0.30501514  0.06196398    -0.26800
C3760       C  0.07806523  0.29983547  0.04677161     0.05300
C3761       C  0.09834501  0.31162894  0.05213245    -0.31700
O3762       O  0.12416141  0.36770171  0.11831824    -0.23500
C3763       C  0.11286020  0.37362391  0.13139712    -0.03500
C3764       C  0.09281633  0.36205808  0.12510911    -0.18000
H3765       H  0.06063421  0.32863390  0.09829229     0.20000
H3766       H  0.13084261  0.34427963  0.08102830     0.18400
H3767       H  0.11056728  0.31131973  0.04175992     0.18300
H3768       H  0.08049329  0.36302203  0.13394300     0.14200
C3769       C  0.14560706  0.33275141  0.86216792     0.29700
C3770       C  0.16341242  0.35100168  0.86137211    -0.36700
C3771       C  0.17265632  0.35679526  0.83522477     0.15600
C3772       C  0.16502442  0.34550839  0.81142857     0.21500
C3773       C  0.14720162  0.32731363  0.81221647    -0.34800
C3774       C  0.13798133  0.32151833  0.83833167     0.15600
O3775       O  0.13415602  0.32455294  0.88420235    -0.26800
C3776       C  0.11904831  0.30785927  0.87420019     0.05300
C3777       C  0.12072125  0.30525373  0.84584467    -0.31700
O3778       O  0.17658436  0.35347142  0.78944701    -0.23500
C3779       C  0.19180524  0.37009941  0.79935634    -0.03500
C3780       C  0.19005705  0.37292500  0.82765232    -0.18000
H3781       H  0.16964864  0.36002918  0.87980771     0.20000
H3782       H  0.14100390  0.31824221  0.79380968     0.18400
H3783       H  0.11034971  0.29333696  0.83249303     0.18300
H3784       H  0.20053020  0.38479620  0.84097087     0.14200
C3785       C  0.10567394  0.46800605  0.44213184     0.29700
C3786       C  0.10372932  0.47237493  0.41433439    -0.36700
C3787       C  0.10974689  0.46343112  0.39416390     0.15600
C3788       C  0.11721319  0.45114768  0.40111773     0.21500
C3789       C  0.11923650  0.44685353  0.42888756    -0.34800
C3790       C  0.11318948  0.45575052  0.44901897     0.15600
O3791       O  0.09977891  0.47372756  0.46409772    -0.26800
C3792       C  0.10356678  0.46508567  0.48533355     0.05300
C3793       C  0.11205748  0.45377680  0.47729354    -0.31700
O3794       O  0.12138014  0.44387868  0.37913487    -0.23500
C3795       C  0.11655381  0.45151733  0.35770161    -0.03500
C3796       C  0.10920006  0.46385710  0.36571821    -0.18000
H3797       H  0.09750777  0.48168898  0.40885200     0.20000
H3798       H  0.12473276  0.43691688  0.43435572     0.18400
H3799       H  0.11586744  0.44469985  0.49016732     0.18300
H3800       H  0.10397275  0.47166620  0.35263047     0.14200
C3801       C  0.09591038  0.58498810  0.64637945     0.29700
C3802       C  0.10702915  0.60569167  0.64262564    -0.36700
C3803       C  0.10191130  0.61709029  0.65976812     0.15600
C3804       C  0.08707041  0.60873114  0.67958153     0.21500
C3805       C  0.07558792  0.58797734  0.68284838    -0.34800
C3806       C  0.08055019  0.57655748  0.66542568     0.15600
O3807       O  0.09871454  0.57160090  0.63335369    -0.26800
C3808       C  0.08479372  0.55433354  0.64389355     0.05300
C3809       C  0.07293311  0.55648001  0.66376477    -0.31700
O3810       O  0.08574093  0.62228523  0.69460140    -0.23500
C3811       C  0.09962937  0.63951259  0.68383378    -0.03500
C3812       C  0.11007087  0.63719096  0.66202108    -0.18000
H3813       H  0.11907434  0.61246284  0.62772304     0.20000
H3814       H  0.06387484  0.58122722  0.69824757     0.18400
H3815       H  0.06081654  0.54494763  0.67570287     0.18300
H3816       H  0.12242834  0.64867075  0.65037303     0.14200
C3817       C  0.14366193  0.42964357  0.66520573     0.29700
C3818       C  0.15416693  0.41942284  0.66148336    -0.36700
C3819       C  0.17021863  0.42468507  0.67949849     0.15600
C3820       C  0.17577898  0.43921485  0.69961949     0.21500
C3821       C  0.16480535  0.44894447  0.70403704    -0.34800
C3822       C  0.14854670  0.44348496  0.68619227     0.15600
O3823       O  0.12933098  0.42833208  0.64905325    -0.26800
C3824       C  0.12458371  0.44114673  0.66015357     0.05300
C3825       C  0.13590988  0.45086226  0.68351195    -0.31700
O3826       O  0.19224980  0.44283907  0.71259368    -0.23500
C3827       C  0.19704171  0.43018429  0.70093295    -0.03500
C3828       C  0.18375245  0.41841134  0.68041590    -0.18000
H3829       H  0.15050299  0.40860034  0.64503292     0.20000
H3830       H  0.16902356  0.46041328  0.71967218     0.18400
H3831       H  0.13572616  0.46257529  0.69556369     0.18300
H3832       H  0.18440419  0.40734378  0.66740335     0.14200
C3833       C  0.98392798  0.50675810  0.47538043     0.29700
C3834       C  0.00323663  0.50986558  0.47772856    -0.36700
C3835       C  0.00853230  0.50622345  0.50406778     0.15600
C3836       C  0.99576172  0.49979661  0.52659603     0.21500
C3837       C  0.97641725  0.49658887  0.52421154    -0.34800
C3838       C  0.97114312  0.50032596  0.49789887     0.15600
O3839       O  0.97630343  0.51065068  0.45331025    -0.26800
C3840       C  0.95839386  0.50663926  0.46185811     0.05300
C3841       C  0.95437569  0.50001105  0.48933407    -0.31700
O3842       O  0.00367566  0.49663558  0.54898303    -0.23500
C3843       C  0.02177240  0.50117000  0.54061175    -0.03500
C3844       C  0.02559269  0.50734226  0.51292717    -0.18000
H3845       H  0.01351313  0.51503968  0.46037097     0.20000
H3846       H  0.96623883  0.49167574  0.54167735     0.18400
H3847       H  0.94146229  0.49674669  0.50176870     0.18300
H3848       H  0.03871383  0.51109235  0.50067332     0.14200
C3849       C  0.89857452  0.48478597  0.84468722     0.29700
C3850       C  0.90564517  0.50089567  0.82600966    -0.36700
C3851       C  0.89517015  0.51134312  0.82551340     0.15600
C3852       C  0.87914092  0.50656834  0.84269286     0.21500
C3853       C  0.87198554  0.49038727  0.86117480    -0.34800
C3854       C  0.88217330  0.47968166  0.86122072     0.15600
O3855       O  0.90568231  0.47256787  0.84796461    -0.26800
C3856       C  0.89348099  0.45929187  0.86653211     0.05300
C3857       C  0.87856135  0.46297713  0.87544237    -0.31700
O3858       O  0.87147316  0.51821071  0.83869503    -0.23500
C3859       C  0.88252672  0.53042731  0.81838814    -0.03500
C3860       C  0.89745512  0.52681189  0.80927202    -0.18000
H3861       H  0.91818871  0.50476752  0.81243345     0.20000
H3862       H  0.85912841  0.48620345  0.87423380     0.18400
H3863       H  0.86670137  0.45447390  0.89011744     0.18300
H3864       H  0.90829633  0.53441135  0.79297122     0.14200
C3865       C  0.79564292  0.25285677  0.80898838     0.29700
C3866       C  0.80716767  0.27353937  0.80493724    -0.36700
C3867       C  0.82308845  0.28379068  0.82342999     0.15600
C3868       C  0.82715920  0.27438266  0.84472333     0.21500
C3869       C  0.81588682  0.25371331  0.84846516    -0.34800
C3870       C  0.80019167  0.24346418  0.82976317     0.15600
O3871       O  0.77979969  0.24033046  0.79457155    -0.26800
C3872       C  0.77437524  0.22269906  0.80610877     0.05300
C3873       C  0.78657165  0.22377924  0.82798595    -0.31700
O3874       O  0.84187005  0.28695597  0.86069532    -0.23500
C3875       C  0.84762034  0.30462375  0.84914248    -0.03500
C3876       C  0.83652080  0.30358776  0.82584855    -0.18000
H3877       H  0.80382461  0.28113459  0.78873882     0.20000
H3878       H  0.81895887  0.24617734  0.86505873     0.18400
H3879       H  0.78535860  0.21178156  0.84095491     0.18300
H3880       H  0.83754500  0.31574852  0.81346490     0.14200
C3881       C  0.92242530  0.29063935  0.92133721     0.29700
C3882       C  0.92765269  0.27871880  0.90519773    -0.36700
C3883       C  0.94085765  0.27348263  0.91759319     0.15600
C3884       C  0.94834866  0.27968047  0.94401924     0.21500
C3885       C  0.94277737  0.29111738  0.96030441    -0.34800
C3886       C  0.92967651  0.29632543  0.94797194     0.15600
O3887       O  0.91303379  0.29989605  0.91240893    -0.26800
C3888       C  0.91406269  0.31140041  0.93375122     0.05300
C3889       C  0.92428655  0.30975587  0.95634792    -0.31700
O3890       O  0.96268600  0.27594024  0.95007015    -0.23500
C3891       C  0.96435073  0.26686260  0.92756899    -0.03500
C3892       C  0.95100057  0.26473832  0.90664663    -0.18000
H3893       H  0.92290992  0.27501309  0.88378881     0.20000
H3894       H  0.94939220  0.29683318  0.98045584     0.18400
H3895       H  0.92902950  0.31886103  0.97493186     0.18300
H3896       H  0.95034192  0.25949754  0.88557782     0.14200
C3897       C  0.97045302  0.42511431  0.76602171     0.29700
C3898       C  0.98246412  0.42093515  0.74878947    -0.36700
C3899       C  0.99807158  0.43730079  0.73532642     0.15600
C3900       C  0.00130313  0.45645316  0.73769385     0.21500
C3901       C  0.98939871  0.46070351  0.75527010    -0.34800
C3902       C  0.97410064  0.44434674  0.76950187     0.15600
O3903       O  0.95592657  0.41216777  0.78199074    -0.26800
C3904       C  0.95027756  0.42319278  0.79627719     0.05300
C3905       C  0.96111203  0.44336697  0.78945358    -0.31700
O3906       O  0.01617372  0.46925646  0.72186006    -0.23500
C3907       C  0.02284020  0.45815217  0.71003123    -0.03500
C3908       C  0.01219514  0.43823362  0.71775755    -0.18000
H3909       H  0.98007164  0.40599254  0.74652095     0.20000
H3910       H  0.99205153  0.47570785  0.75797655     0.18400
H3911       H  0.96018048  0.45559116  0.79879640     0.18300
H3912       H  0.01392899  0.42601920  0.71019282     0.14200
C3913       C  0.97910578  0.48093582  0.00080152     0.29700
C3914       C  0.98530195  0.48855918  0.02767014    -0.36700
C3915       C  0.00168159  0.50781853  0.02917028     0.15600
C3916       C  0.01129339  0.51875405  0.00575479     0.21500
C3917       C  0.00539837  0.51093952  0.97885619    -0.34800
C3918       C  0.98890786  0.49170614  0.97736751     0.15600
O3919       O  0.96342879  0.46375310  0.99470204    -0.26800
C3920       C  0.96311655  0.46341790  0.96702263     0.05300
C3921       C  0.97868222  0.48039118  0.95499573    -0.31700
O3922       O  0.02493734  0.53710022  0.01184109    -0.23500
C3923       C  0.02417304  0.53791339  0.03947633    -0.03500
C3924       C  0.01011553  0.52005198  0.05148156    -0.18000
H3925       H  0.97741316  0.48033231  0.04607547     0.20000
H3926       H  0.01263298  0.51957133  0.96039954     0.18400
H3927       H  0.98177886  0.48397271  0.93311092     0.18300
H3928       H  0.00586946  0.51696524  0.07317676     0.14200
C3929       C  0.98260729  0.21594128  0.78336637     0.29700
C3930       C  0.96618151  0.20636105  0.76563887    -0.36700
C3931       C  0.97032263  0.20899624  0.73698868     0.15600
C3932       C  0.98927031  0.22020346  0.72628982     0.21500
C3933       C  0.00572471  0.22953439  0.74399042    -0.34800
C3934       C  0.00156624  0.22694987  0.77262572     0.15600
O3935       O  0.98218816  0.21629830  0.81092170    -0.26800
C3936       C  0.00118860  0.22764895  0.81781086     0.05300
C3937       C  0.01381469  0.23458057  0.79477311    -0.31700
O3938       O  0.98952363  0.22142802  0.69880644    -0.23500
C3939       C  0.97045201  0.21077819  0.69188771    -0.03500
C3940       C  0.95791912  0.20267261  0.71482380    -0.18000
H3941       H  0.95117998  0.19783438  0.77359199     0.20000
H3942       H  0.02067201  0.23856260  0.73604375     0.18400
H3943       H  0.02977718  0.24426154  0.79440415     0.18300
H3944       H  0.94186659  0.19385626  0.71514064     0.14200
C3945       C  0.81754112  0.05276017  0.51158949     0.29700
C3946       C  0.83408234  0.06184362  0.52932976    -0.36700
C3947       C  0.84491718  0.08275593  0.52878099     0.15600
C3948       C  0.83958221  0.09394244  0.51232898     0.21500
C3949       C  0.82317606  0.08487742  0.49442010    -0.34800
C3950       C  0.81259190  0.06399688  0.49458721     0.15600
O3951       O  0.80573753  0.03342819  0.50800516    -0.26800
C3952       C  0.79324930  0.03231929  0.48821224     0.05300
C3953       C  0.79685844  0.05086331  0.47901770    -0.31700
O3954       O  0.85167911  0.11324993  0.51521111    -0.23500
C3955       C  0.86515219  0.11451272  0.53343837    -0.03500
C3956       C  0.86174219  0.09599409  0.54254414    -0.18000
H3957       H  0.83839097  0.05320638  0.54230084     0.20000
H3958       H  0.81913047  0.09350440  0.48097726     0.18400
H3959       H  0.78918975  0.05413910  0.46287654     0.18300
H3960       H  0.87029152  0.09279517  0.55732024     0.14200
C3961       C  0.04795815  0.23794300  0.51589502     0.29700
C3962       C  0.06853601  0.24744634  0.52046969    -0.36700
C3963       C  0.07949943  0.24288320  0.50157946     0.15600
C3964       C  0.07080909  0.22963319  0.47990339     0.21500
C3965       C  0.05027114  0.22045927  0.47497029    -0.34800
C3966       C  0.03933123  0.22525213  0.49363233     0.15600
O3967       O  0.03479424  0.23931363  0.53176062    -0.26800
C3968       C  0.01751133  0.22766345  0.51921963     0.05300
C3969       C  0.01945125  0.21861028  0.49530069    -0.31700
O3970       O  0.08379354  0.22692399  0.46551326    -0.23500
C3971       C  0.10107383  0.23883071  0.47789736    -0.03500
C3972       C  0.09929740  0.24921910  0.50033113    -0.18000
H3973       H  0.07548140  0.25748089  0.53779732     0.20000
H3974       H  0.04326927  0.21010872  0.45798330     0.18400
H3975       H  0.00779998  0.20797534  0.48188289     0.18300
H3976       H  0.11089439  0.25966845  0.51398856     0.14200
C3977       C  0.80312707  0.17486230  0.67370101     0.29700
C3978       C  0.81059126  0.17708142  0.64651706    -0.36700
C3979       C  0.82779419  0.17571849  0.64356251     0.15600
C3980       C  0.83699822  0.17254627  0.66594291     0.21500
C3981       C  0.82961585  0.17045215  0.69313195    -0.34800
C3982       C  0.81239041  0.17175210  0.69606986     0.15600
O3983       O  0.78645333  0.17411820  0.68082534    -0.26800
C3984       C  0.78501834  0.17058373  0.70808951     0.05300
C3985       C  0.80083802  0.16912927  0.71885005    -0.31700
O3986       O  0.85310473  0.17222228  0.65864561    -0.23500
C3987       C  0.85427475  0.17514159  0.63123983    -0.03500
C3988       C  0.83886907  0.17735500  0.62057044    -0.18000
H3989       H  0.80329177  0.17936019  0.62887896     0.20000
H3990       H  0.83671098  0.16780207  0.71069709     0.18400
H3991       H  0.80277519  0.16528053  0.73983425     0.18300
H3992       H  0.83664234  0.18051179  0.59934221     0.14200
C3993       C  0.04789814  0.35417314  0.58149132     0.29700
C3994       C  0.04540585  0.33713050  0.59590362    -0.36700
C3995       C  0.02980334  0.31858008  0.58664644     0.15600
C3996       C  0.01775233  0.31721402  0.56469484     0.21500
C3997       C  0.02050640  0.33399502  0.55003522    -0.34800
C3998       C  0.03585457  0.35231057  0.55927793     0.15600
O3999       O  0.05928432  0.37303322  0.58902774    -0.26800
C4000       C  0.05445931  0.38318788  0.57120918     0.05300
C4001       C  0.04002029  0.37097270  0.55228180    -0.31700
O4002       O  0.00270765  0.29917599  0.56132404    -0.23500
C4003       C  0.00492006  0.28840375  0.58102198    -0.03500
C4004       C  0.02171305  0.29960365  0.59745575    -0.18000
H4005       H  0.05414215  0.33834453  0.61409483     0.20000
H4006       H  0.01046469  0.33292657  0.53365106     0.18400
H4007       H  0.03219403  0.37510772  0.53748017     0.18300
H4008       H  0.02631463  0.29487303  0.61581890     0.14200
C4009       C  0.86250391  0.32137251  0.10847505     0.29700
C4010       C  0.85945581  0.31468100  0.08080715    -0.36700
C4011       C  0.86337294  0.32910098  0.06040563     0.15600
C4012       C  0.86971654  0.34871107  0.06697614     0.21500
C4013       C  0.87237154  0.35531496  0.09472909    -0.34800
C4014       C  0.86865048  0.34091958  0.11514625     0.15600
O4015       O  0.86094220  0.31063174  0.13046807    -0.26800
C4016       C  0.86614152  0.32332965  0.15165620     0.05300
C4017       C  0.87104508  0.34248396  0.14346151    -0.31700
O4018       O  0.87451842  0.36009859  0.04473545    -0.23500
C4019       C  0.87120777  0.34771288  0.02358153    -0.03500
C4020       C  0.86401154  0.32810959  0.03203649    -0.18000
H4021       H  0.85514723  0.29946786  0.07554073     0.20000
H4022       H  0.87783933  0.37078332  0.09993108     0.18400
H4023       H  0.87595964  0.35559215  0.15629888     0.18300
H4024       H  0.86112062  0.31538126  0.01938578     0.14200
C4025       C  0.72105594  0.16171885  0.34050143     0.29700
C4026       C  0.74160713  0.17200431  0.34521266    -0.36700
C4027       C  0.75292383  0.18830994  0.32770537     0.15600
C4028       C  0.74457667  0.19438801  0.30733273     0.21500
C4029       C  0.72403459  0.18388520  0.30228723    -0.34800
C4030       C  0.71274384  0.16725984  0.31940198     0.15600
O4031       O  0.70761154  0.14686892  0.35560050    -0.26800
C4032       C  0.69045677  0.14251627  0.34370856     0.05300
C4033       C  0.69274569  0.15456458  0.32086197    -0.31700
O4034       O  0.75792218  0.21044943  0.29402655    -0.23500
C4035       C  0.77504593  0.21444863  0.30571179    -0.03500
C4036       C  0.77285158  0.20113964  0.32672101    -0.18000
H4037       H  0.74827932  0.16775614  0.36165223     0.20000
H4038       H  0.71731024  0.18847112  0.28634175     0.18400
H4039       H  0.68126085  0.15483171  0.30845167     0.18300
H4040       H  0.78426494  0.20110640  0.33958803     0.14200
C4041       C  0.87937707  0.38988140  0.34931886     0.29700
C4042       C  0.87246791  0.39933839  0.36758560    -0.36700
C4043       C  0.88204517  0.42025695  0.36586559     0.15600
C4044       C  0.89766185  0.43109759  0.34787620     0.21500
C4045       C  0.90446030  0.42167902  0.32952430    -0.34800
C4046       C  0.89459802  0.40080078  0.33079385     0.15600
O4047       O  0.87207246  0.37044922  0.34652671    -0.26800
C4048       C  0.88259459  0.36892109  0.32568347     0.05300
C4049       C  0.89675048  0.38735332  0.31506172    -0.31700
O4050       O  0.90446475  0.45042947  0.34957632    -0.23500
C4051       C  0.89287942  0.45212243  0.36855002    -0.03500
C4052       C  0.87860700  0.43380310  0.37942359    -0.18000
H4053       H  0.86020572  0.39094676  0.38172087     0.20000
H4054       H  0.91636402  0.43004758  0.31485343     0.18400
H4055       H  0.90689851  0.39035778  0.29787367     0.18300
H4056       H  0.86745458  0.43092947  0.39508085     0.14200
C4057       C  0.86513875  0.22834004  0.40639905     0.29700
C4058       C  0.86229658  0.21058860  0.41859163    -0.36700
C4059       C  0.87811388  0.21221277  0.43472753     0.15600
C4060       C  0.89565378  0.22997961  0.43794009     0.21500
C4061       C  0.89831597  0.24772870  0.42625415    -0.34800
C4062       C  0.88232020  0.24621644  0.41090614     0.15600
O4063       O  0.85311240  0.23009590  0.38869614    -0.26800
C4064       C  0.86247021  0.24945802  0.38255810     0.05300
C4065       C  0.88059204  0.26021729  0.39607206    -0.31700
O4066       O  0.90836295  0.22829214  0.45417598    -0.23500
C4067       C  0.89884972  0.20926334  0.46187277    -0.03500
C4068       C  0.87986349  0.19851595  0.45058547    -0.18000
H4069       H  0.84877616  0.19651221  0.41558515     0.20000
H4070       H  0.91191159  0.26177588  0.42903721     0.18400
H4071       H  0.89178635  0.27567775  0.39301704     0.18300
H4072       H  0.86871402  0.18316926  0.45453813     0.14200
C4073       C  0.97431652  0.37770066  0.27663947     0.29700
C4074       C  0.99137457  0.38405674  0.29298023    -0.36700
C4075       C  0.00953747  0.39664642  0.27988984     0.15600
C4076       C  0.01085942  0.40244627  0.25243808     0.21500
C4077       C  0.99370591  0.39626980  0.23615485    -0.34800
C4078       C  0.97545364  0.38377734  0.24935798     0.15600
O4079       O  0.95621628  0.36407313  0.28382578    -0.26800
C4080       C  0.94537747  0.36155959  0.26116606     0.05300
C4081       C  0.95653663  0.37345984  0.23895798    -0.31700
O4082       O  0.02934973  0.41158559  0.24321892    -0.23500
C4083       C  0.04003139  0.41199451  0.26515926    -0.03500
C4084       C  0.02844087  0.40289095  0.28852422    -0.18000
H4085       H  0.99059691  0.37858578  0.31395678     0.20000
H4086       H  0.99459505  0.39996586  0.21426990     0.18400
H4087       H  0.95181466  0.37307284  0.21766526     0.18300
H4088       H  0.03303254  0.39927468  0.30790363     0.14200
C4089       C  0.82822439  0.15345644  0.16500297     0.29700
C4090       C  0.83241072  0.16122947  0.19211836    -0.36700
C4091       C  0.83105310  0.17838731  0.19650641     0.15600
C4092       C  0.82611594  0.18729332  0.17550032     0.21500
C4093       C  0.82194012  0.17953599  0.14843619    -0.34800
C4094       C  0.82325709  0.16238761  0.14407122     0.15600
O4095       O  0.82740676  0.13689407  0.15672309    -0.26800
C4096       C  0.82197164  0.13525202  0.13013318     0.05300
C4097       C  0.81930872  0.15077638  0.12101667    -0.31700
O4098       O  0.82677928  0.20377460  0.18366819    -0.23500
C4099       C  0.83206694  0.20545756  0.21029192    -0.03500
C4100       C  0.83474972  0.18996991  0.21961552    -0.18000
H4101       H  0.83629191  0.15429351  0.20864743     0.20000
H4102       H  0.81798029  0.18642817  0.13193664     0.18400
H4103       H  0.81401989  0.15254223  0.10096772     0.18300
H4104       H  0.83990744  0.18823334  0.23978346     0.14200
loop_ 
_geom_bond_atom_site_label_1 
_geom_bond_atom_site_label_2 
_geom_bond_distance 
_geom_bond_site_symmetry_2 
_ccdc_geom_bond_type 
Zr1           O2   2.442       .  S
Zr1           O3   2.427       .  S
Zr1           O4   2.436       .  S
Zr1           O7   2.452       .  S
Zr1           O9   2.388       .  S
Zr1          O10   2.377       .  S
Zr1          O11   2.408       .  S
Zr1          O12   2.404       .  S
O2           H58   0.991       .  S
O2           H66   0.990       .  S
O3           C23   1.282       .  A
O4           C25   1.283       .  A
O5          Zr15   2.395       .  S
O5           C24   1.277       .  A
O6          Zr14   2.443       .  S
O6           C25   1.287       .  A
O7           C24   1.287       .  A
O8          Zr16   2.427       .  S
O8           C23   1.281       .  A
O9          Zr14   2.397       .  S
O9          Zr16   2.379       .  S
O10         Zr15   2.383       .  S
O10         Zr16   2.366       .  S
O10          H45   0.966       .  S
O11         Zr14   2.413       .  S
O11         Zr31   2.375       .  S
O11          H48   0.964       .  S
O12         Zr15   2.387       .  S
O12         Zr31   2.394       .  S
Zr13         O38   2.440       .  S
Zr13         O32   2.467       .  S
Zr13         O40   2.464       .  S
Zr13         O28   2.441       .  S
Zr13         O19   2.407       .  S
Zr13         O20   2.420       .  S
Zr13         O21   2.379       .  S
Zr13         O22   2.383       .  S
Zr14         O33   2.439       .  S
Zr14         O26   2.433       .  S
Zr14         O27   2.456       .  S
Zr14         O20   2.404       .  S
Zr14         O21   2.390       .  S
Zr15         O17   2.436       .  S
Zr15         O39   2.439       .  S
Zr15         O41   2.389       .  S
Zr15         O19   2.385       .  S
Zr15         O22   2.390       .  S
Zr16         O42   2.434       .  S
Zr16         O43   2.434       .  S
Zr16         O18   2.436       .  S
Zr16         O19   2.398       .  S
Zr16         O20   2.400       .  S
O17          H54   0.990       .  S
O18          H49   0.990       .  S
O18          H63   0.989       .  S
O20          H46   0.966       .  S
O21         Zr31   2.375       .  S
O22         Zr31   2.377       .  S
O22          H47   0.966       .  S
C23        C4035   1.468       .  S
C24        C4099   1.463       .  S
C25        C4064   1.466       .  S
O26          H62   0.990       .  S
O27          C29   1.289       .  A
O28          C29   1.286       .  A
C29        C4048   1.480       .  S
O30         Zr31   2.438       .  S
O30          H59   0.990       .  S
Zr31         O34   2.436       .  S
Zr31         O35   2.441       .  S
Zr31         O36   2.398       .  S
O32          C37   1.289       .  A
O33          H50   0.990       .  S
O33          H65   0.990       .  S
O34          H51   0.989       .  S
O35          H55   0.990       .  S
O35          H64   0.989       .  S
O36          C37   1.276       .  A
C37        C4080   1.468       .  S
O38          H57   0.990       .  S
O38          H61   0.991       .  S
O39          H53   0.990       .  S
O39          H60   0.990       .  S
O40          C44   1.290       .  A
O41          C44   1.276       .  A
O42          H52   0.990       .  S
O43          H56   0.990       .  S
C44        C4016   1.469       .  S
Zr67         O68   2.443       .  S
Zr67         O69   2.429       .  S
Zr67         O70   2.450       .  S
Zr67         O73   2.462       .  S
Zr67         O75   2.391       .  S
Zr67         O76   2.385       .  S
Zr67         O77   2.409       .  S
Zr67         O78   2.399       .  S
O68         H124   0.991       .  S
O68         H132   0.990       .  S
O69          C89   1.281       .  A
O70          C91   1.285       .  A
O71         Zr81   2.382       .  S
O71          C90   1.275       .  A
O72         Zr80   2.441       .  S
O72          C91   1.286       .  A
O73          C90   1.289       .  A
O74         Zr82   2.440       .  S
O74          C89   1.284       .  A
O75         Zr80   2.402       .  S
O75         Zr82   2.382       .  S
O76         Zr81   2.385       .  S
O76         Zr82   2.373       .  S
O76         H111   0.966       .  S
O77         Zr80   2.415       .  S
O77         Zr97   2.373       .  S
O77         H114   0.964       .  S
O78         Zr81   2.386       .  S
O78         Zr97   2.388       .  S
Zr79        O104   2.436       .  S
Zr79         O98   2.473       .  S
Zr79        O106   2.460       .  S
Zr79         O94   2.437       .  S
Zr79         O85   2.412       .  S
Zr79         O86   2.425       .  S
Zr79         O87   2.379       .  S
Zr79         O88   2.378       .  S
Zr80         O99   2.435       .  S
Zr80         O92   2.437       .  S
Zr80         O93   2.457       .  S
Zr80         O86   2.403       .  S
Zr80         O87   2.385       .  S
Zr81         O83   2.436       .  S
Zr81        O105   2.435       .  S
Zr81        O107   2.395       .  S
Zr81         O85   2.375       .  S
Zr81         O88   2.386       .  S
Zr82        O108   2.437       .  S
Zr82        O109   2.436       .  S
Zr82         O84   2.437       .  S
Zr82         O85   2.406       .  S
Zr82         O86   2.395       .  S
O83         H120   0.990       .  S
O84         H115   0.990       .  S
O84         H129   0.990       .  S
O86         H112   0.965       .  S
O87         Zr97   2.375       .  S
O88         Zr97   2.370       .  S
O88         H113   0.964       .  S
C89        C3955   1.473       .  S
C90        C3987   1.463       .  S
C91        C4067   1.467       .  S
O92         H128   0.990       .  S
O93          C95   1.289       .  A
O94          C95   1.285       .  A
C95        C3968   1.476   1_655  S
O96         Zr97   2.440       .  S
O96         H125   0.990       .  S
Zr97        O100   2.440       .  S
Zr97        O101   2.440       .  S
Zr97        O102   2.404       .  S
O98         C103   1.290       .  A
O99         H116   0.990       .  S
O99         H131   0.990       .  S
O100        H117   0.990       .  S
O101        H121   0.989       .  S
O101        H130   0.990       .  S
O102        C103   1.279       .  A
C103       C4003   1.474   1_655  S
O104        H123   0.990       .  S
O104        H127   0.990   1_655  S
O105        H119   0.990       .  S
O105        H126   0.990       .  S
O106        C110   1.290       .  A
O107        C110   1.278       .  A
O108        H118   0.990       .  S
O109        H122   0.991       .  S
C110       C3939   1.472       .  S
Zr133       O134   2.443       .  S
Zr133       O135   2.442       .  S
Zr133       O136   2.442       .  S
Zr133       O139   2.447       .  S
Zr133       O141   2.384       .  S
Zr133       O142   2.387       .  S
Zr133       O143   2.412       .  S
Zr133       O144   2.401       .  S
O134        H190   0.991       .  S
O134        H198   0.990       .  S
O135        C155   1.283       .  A
O136        C157   1.284       .  A
O137       Zr147   2.407       .  S
O137        C156   1.279       .  A
O138       Zr146   2.443       .  S
O138        C157   1.286       .  A
O139        C156   1.286       .  A
O140       Zr148   2.430       .  S
O140        C155   1.283       .  A
O141       Zr146   2.400       .  S
O141       Zr148   2.382       .  S
O142       Zr147   2.388       .  S
O142       Zr148   2.377       .  S
O142        H177   0.965       .  S
O143       Zr146   2.404       .  S
O143       Zr163   2.386       .  S
O143        H180   0.965       .  S
O144       Zr147   2.387       .  S
O144       Zr163   2.388       .  S
Zr145       O170   2.445       .  S
Zr145       O164   2.451       .  S
Zr145       O172   2.456       .  S
Zr145       O160   2.427       .  S
Zr145       O151   2.410       .  S
Zr145       O152   2.415       .  S
Zr145       O153   2.383       .  S
Zr145       O154   2.377       .  S
Zr146       O165   2.436       .  S
Zr146       O158   2.436       .  S
Zr146       O159   2.448       .  S
Zr146       O152   2.400       .  S
Zr146       O153   2.392       .  S
Zr147       O149   2.436   1_556  S
Zr147       O171   2.438       .  S
Zr147       O173   2.410       .  S
Zr147       O151   2.382       .  S
Zr147       O154   2.388       .  S
Zr148       O174   2.435       .  S
Zr148       O175   2.437       .  S
Zr148       O150   2.438       .  S
Zr148       O151   2.403       .  S
Zr148       O152   2.391       .  S
O149        H186   0.990       .  S
O150        H181   0.990       .  S
O150        H195   0.990       .  S
O152        H178   0.965       .  S
O153       Zr163   2.375       .  S
O154       Zr163   2.369       .  S
O154        H179   0.965       .  S
C155       C3856   1.475       .  S
C156       C3920   1.466       .  S
C157       C3904   1.470       .  S
O158        H194   0.990       .  S
O159        C161   1.288       .  A
O160        C161   1.284       .  A
C161       C3875   1.467       .  S
O162       Zr163   2.438       .  S
O162        H191   0.990       .  S
Zr163       O166   2.438       .  S
Zr163       O167   2.439       .  S
Zr163       O168   2.422       .  S
O164        C169   1.286       .  A
O165        H182   0.990       .  S
O165        H197   0.990       .  S
O166        H183   0.990       .  S
O167        H187   0.990       .  S
O167        H196   0.990       .  S
O168        C169   1.281       .  A
C169       C3888   1.471       .  S
O170        H189   0.991       .  S
O170        H193   0.990       .  S
O171        H185   0.990       .  S
O171        H192   0.990       .  S
O172        C176   1.288       .  A
O173        C176   1.279       .  A
O174        H184   0.990       .  S
O175        H188   0.990       .  S
C176       C4019   1.471   1_556  S
Zr199       O200   2.442       .  S
Zr199       O201   2.430       .  S
Zr199       O202   2.451       .  S
Zr199       O205   2.461       .  S
Zr199       O207   2.388       .  S
Zr199       O208   2.383       .  S
Zr199       O209   2.410       .  S
Zr199       O210   2.400       .  S
O200        H256   0.990       .  S
O200        H264   0.990       .  S
O201        C221   1.283       .  A
O202        C223   1.285       .  A
O203       Zr213   2.387       .  S
O203        C222   1.276       .  A
O204       Zr212   2.430       .  S
O204        C223   1.285       .  A
O205        C222   1.289       .  A
O206       Zr214   2.436       .  S
O206        C221   1.284       .  A
O207       Zr212   2.398       .  S
O207       Zr214   2.382       .  S
O208       Zr213   2.377       .  S
O208       Zr214   2.367       .  S
O208        H243   0.966       .  S
O209       Zr212   2.409       .  S
O209       Zr229   2.379       .  S
O209        H246   0.964       .  S
O210       Zr213   2.386       .  S
O210       Zr229   2.387       .  S
Zr211       O236   2.439       .  S
Zr211       O230   2.461       .  S
Zr211       O238   2.454       .  S
Zr211       O226   2.448       .  S
Zr211       O217   2.414       .  S
Zr211       O218   2.416       .  S
Zr211       O219   2.378       .  S
Zr211       O220   2.381       .  S
Zr212       O231   2.435       .  S
Zr212       O224   2.434       .  S
Zr212       O225   2.447       .  S
Zr212       O218   2.400       .  S
Zr212       O219   2.393       .  S
Zr213       O215   2.436       .  S
Zr213       O237   2.435       .  S
Zr213       O239   2.387       .  S
Zr213       O217   2.380       .  S
Zr213       O220   2.389       .  S
Zr214       O240   2.437       .  S
Zr214       O241   2.436       .  S
Zr214       O216   2.437       .  S
Zr214       O217   2.401       .  S
Zr214       O218   2.396       .  S
O215        H252   0.990       .  S
O216        H247   0.990       .  S
O216        H261   0.990       .  S
O218        H244   0.965       .  S
O219       Zr229   2.384       .  S
O220       Zr229   2.366       .  S
O220        H245   0.966       .  S
C221       C3808   1.470       .  S
C222       C3843   1.467       .  S
C223       C3907   1.466       .  S
O224        H260   0.990       .  S
O225        C227   1.287       .  A
O226        C227   1.287       .  A
C227       C3824   1.475       .  S
O228       Zr229   2.439       .  S
O228        H257   0.990   1_455  S
Zr229       O232   2.438       .  S
Zr229       O233   2.441       .  S
Zr229       O234   2.412       .  S
O230        C235   1.287       .  A
O231        H248   0.990       .  S
O231        H263   0.990       .  S
O232        H249   0.990       .  S
O233        H253   0.990       .  S
O233        H262   0.990       .  S
O234        C235   1.280       .  A
C235       C4000   1.473       .  S
O236        H255   0.990       .  S
O236        H259   0.991       .  S
O237        H251   0.990       .  S
O237        H258   0.990       .  S
O238        C242   1.288       .  A
O239        C242   1.276       .  A
O240        H250   0.990       .  S
O241        H254   0.990       .  S
C242       C3792   1.462       .  S
Zr265       O266   2.442       .  S
Zr265       O267   2.437       .  S
Zr265       O268   2.441   1_556  S
Zr265       O271   2.456       .  S
Zr265       O273   2.389       .  S
Zr265       O274   2.381       .  S
Zr265       O275   2.410       .  S
Zr265       O276   2.402       .  S
O266        H322   0.991       .  S
O266        H330   0.990       .  S
O267        C287   1.285       .  A
O268        C289   1.284       .  A
O269       Zr279   2.388       .  S
O269        C288   1.276       .  A
O270       Zr278   2.452   1_554  S
O270        C289   1.287       .  A
O271        C288   1.287       .  A
O272       Zr280   2.435       .  S
O272        C287   1.283       .  A
O273       Zr278   2.397       .  S
O273       Zr280   2.382       .  S
O274       Zr279   2.382       .  S
O274       Zr280   2.372       .  S
O274        H309   0.966       .  S
O275       Zr278   2.409       .  S
O275       Zr295   2.385       .  S
O275        H312   0.964       .  S
O276       Zr279   2.384       .  S
O276       Zr295   2.396       .  S
Zr277       O302   2.443   1_455  S
Zr277       O296   2.468   1_455  S
Zr277       O304   2.477   1_455  S
Zr277       O292   2.436   1_455  S
Zr277       O283   2.414       .  S
Zr277       O284   2.423       .  S
Zr277       O285   2.384       .  S
Zr277       O286   2.376       .  S
Zr278       O297   2.436   1_556  S
Zr278       O290   2.436   1_556  S
Zr278       O291   2.461   1_455  S
Zr278       O284   2.404       .  S
Zr278       O285   2.388       .  S
Zr279       O281   2.436       .  S
Zr279       O303   2.438       .  S
Zr279       O305   2.384       .  S
Zr279       O283   2.382       .  S
Zr279       O286   2.386       .  S
Zr280       O306   2.436       .  S
Zr280       O307   2.437       .  S
Zr280       O282   2.438       .  S
Zr280       O283   2.407       .  S
Zr280       O284   2.394       .  S
O281        H318   0.990       .  S
O282        H313   0.990       .  S
O282        H327   0.990       .  S
O284        H310   0.966       .  S
O285       Zr295   2.371       .  S
O286       Zr295   2.370       .  S
O286        H311   0.964       .  S
C287       C3728   1.474       .  S
C288       C3776   1.468       .  S
C289       C3760   1.475       .  S
O290        H326   0.990       .  S
O291        C293   1.290       .  A
O292        C293   1.286       .  A
C293       C3744   1.477       .  S
O294       Zr295   2.439       .  S
O294        H323   0.990       .  S
Zr295       O298   2.437       .  S
Zr295       O299   2.443       .  S
Zr295       O300   2.422   1_455  S
O296        C301   1.289       .  A
O297        H314   0.990       .  S
O297        H329   0.990       .  S
O298        H315   0.990       .  S
O299        H319   0.990       .  S
O299        H328   0.990       .  S
O300        C301   1.281       .  A
C301       C3891   1.476       .  S
O302        H321   0.990       .  S
O302        H325   0.990       .  S
O303        H317   0.990       .  S
O303        H324   0.990       .  S
O304        C308   1.292   1_655  A
O305        C308   1.276       .  A
O306        H316   0.990       .  S
O307        H320   0.990       .  S
C308       C3936   1.474       .  S
Zr331       O332   2.440       .  S
Zr331       O333   2.443       .  S
Zr331       O334   2.450       .  S
Zr331       O337   2.464       .  S
Zr331       O339   2.391       .  S
Zr331       O340   2.384       .  S
Zr331       O341   2.414       .  S
Zr331       O342   2.402       .  S
O332        H388   0.990       .  S
O332        H396   0.990       .  S
O333        C353   1.284       .  A
O334        C355   1.285       .  A
O335       Zr345   2.390       .  S
O335        C354   1.277       .  A
O336       Zr344   2.443       .  S
O336        C355   1.287       .  A
O337        C354   1.289       .  A
O338       Zr346   2.433       .  S
O338        C353   1.282       .  A
O339       Zr344   2.402       .  S
O339       Zr346   2.386       .  S
O340       Zr345   2.381       .  S
O340       Zr346   2.373       .  S
O340        H375   0.966       .  S
O341       Zr344   2.407       .  S
O341       Zr361   2.377       .  S
O341        H378   0.964       .  S
O342       Zr345   2.387       .  S
O342       Zr361   2.392       .  S
Zr343       O368   2.443       .  S
Zr343       O362   2.449       .  S
Zr343       O370   2.470       .  S
Zr343       O358   2.432       .  S
Zr343       O349   2.410       .  S
Zr343       O350   2.416       .  S
Zr343       O351   2.383       .  S
Zr343       O352   2.377       .  S
Zr344       O363   2.437       .  S
Zr344       O356   2.435       .  S
Zr344       O357   2.449       .  S
Zr344       O350   2.396       .  S
Zr344       O351   2.388       .  S
Zr345       O347   2.437       .  S
Zr345       O369   2.437       .  S
Zr345       O371   2.388       .  S
Zr345       O349   2.380       .  S
Zr345       O352   2.386       .  S
Zr346       O372   2.436       .  S
Zr346       O373   2.436       .  S
Zr346       O348   2.437       .  S
Zr346       O349   2.405       .  S
Zr346       O350   2.398       .  S
O347        H384   0.990       .  S
O348        H379   0.991       .  S
O348        H393   0.990       .  S
O350        H376   0.966       .  S
O351       Zr361   2.376       .  S
O352       Zr361   2.367       .  S
O352        H377   0.964       .  S
C353       C3680   1.474       .  S
C354       C3712   1.470       .  S
C355       C3763   1.469       .  S
O356        H392   0.990       .  S
O357        C359   1.288       .  A
O358        C359   1.285       .  A
C359       C3699   1.474       .  S
O360       Zr361   2.439       .  S
O360        H389   0.990       .  S
Zr361       O364   2.438       .  S
Zr361       O365   2.439       .  S
Zr361       O366   2.418       .  S
O362        C367   1.286       .  A
O363        H380   0.990       .  S
O363        H395   0.990       .  S
O364        H381   0.990       .  S
O365        H385   0.990       .  S
O365        H394   0.990       .  S
O366        C367   1.281       .  A
C367       C4083   1.466       .  S
O368        H387   0.989       .  S
O368        H391   0.991       .  S
O369        H383   0.990       .  S
O369        H390   0.990       .  S
O370        C374   1.291       .  A
O371        C374   1.276       .  A
O372        H382   0.990       .  S
O373        H386   0.990       .  S
C374       C3795   1.467       .  S
Zr397       O398   2.440       .  S
Zr397       O399   2.426       .  S
Zr397       O400   2.454       .  S
Zr397       O403   2.430       .  S
Zr397       O405   2.375       .  S
Zr397       O406   2.392       .  S
Zr397       O407   2.407       .  S
Zr397       O408   2.398       .  S
O398        H454   0.991       .  S
O398        H462   0.990       .  S
O399        C419   1.282       .  A
O400        C421   1.286       .  A
O401       Zr411   2.448       .  S
O401        C420   1.287       .  A
O402       Zr410   2.378       .  S
O402        C421   1.274       .  A
O403        C420   1.284       .  A
O404       Zr412   2.433       .  S
O404        C419   1.283       .  A
O405       Zr410   2.382       .  S
O405       Zr412   2.368       .  S
O406       Zr411   2.391       .  S
O406       Zr412   2.382       .  S
O406        H441   0.966       .  S
O407       Zr410   2.394       .  S
O407       Zr427   2.401       .  S
O407        H444   0.965       .  S
O408       Zr411   2.389       .  S
O408       Zr427   2.384       .  S
Zr409       O434   2.441       .  S
Zr409       O428   2.440       .  S
Zr409       O436   2.421       .  S
Zr409       O424   2.454       .  S
Zr409       O415   2.411       .  S
Zr409       O416   2.404       .  S
Zr409       O417   2.373       .  S
Zr409       O418   2.386       .  S
Zr410       O429   2.439       .  S
Zr410       O422   2.437       .  S
Zr410       O423   2.389       .  S
Zr410       O416   2.382       .  S
Zr410       O417   2.380       .  S
Zr411       O413   2.435       .  S
Zr411       O435   2.437       .  S
Zr411       O437   2.448       .  S
Zr411       O415   2.392       .  S
Zr411       O418   2.386       .  S
Zr412       O438   2.435       .  S
Zr412       O439   2.435       .  S
Zr412       O414   2.437       .  S
Zr412       O415   2.400       .  S
Zr412       O416   2.401       .  S
O413        H450   0.990       .  S
O414        H445   0.990       .  S
O414        H459   0.989       .  S
O416        H442   0.966       .  S
O417       Zr427   2.369       .  S
O418       Zr427   2.380       .  S
O418        H443   0.966       .  S
C419       C3619   1.469       .  S
C420       C3648   1.471       .  S
C421       C3667   1.458       .  S
O422        H458   0.990       .  S
O423        C425   1.276       .  A
O424        C425   1.288       .  A
C425       C3603   1.466       .  S
O426       Zr427   2.439       .  S
O426        H455   0.990       .  S
Zr427       O430   2.437       .  S
Zr427       O431   2.438       .  S
Zr427       O432   2.421       .  S
O428        C433   1.284       .  A
O429        H446   0.990       .  S
O429        H461   0.990       .  S
O430        H447   0.990       .  S
O431        H451   0.990       .  S
O431        H460   0.990       .  S
O432        C433   1.282       .  A
C433       C3632   1.462       .  S
O434        H453   0.990       .  S
O434        H457   0.990       .  S
O435        H449   0.990       .  S
O435        H456   0.990       .  S
O436        C440   1.282       .  A
O437        C440   1.287       .  A
O438        H448   0.990       .  S
O439        H452   0.990       .  S
C440       C3811   1.469       .  S
Zr463       O464   2.442       .  S
Zr463       O465   2.429       .  S
Zr463       O466   2.465       .  S
Zr463       O469   2.438       .  S
Zr463       O471   2.377       .  S
Zr463       O472   2.395       .  S
Zr463       O473   2.410       .  S
Zr463       O474   2.402       .  S
O464        H520   0.991       .  S
O464        H528   0.990       .  S
O465        C485   1.282       .  A
O466        C487   1.287       .  A
O467       Zr477   2.439       .  S
O467        C486   1.286       .  A
O468       Zr476   2.398       .  S
O468        C487   1.277       .  A
O469        C486   1.284       .  A
O470       Zr478   2.434       .  S
O470        C485   1.283       .  A
O471       Zr476   2.382       .  S
O471       Zr478   2.375       .  S
O472       Zr477   2.398       .  S
O472       Zr478   2.384       .  S
O472        H507   0.966       .  S
O473       Zr476   2.392       .  S
O473       Zr493   2.404       .  S
O473        H510   0.966       .  S
O474       Zr477   2.392       .  S
O474       Zr493   2.386       .  S
Zr475       O500   2.439   1_455  S
Zr475       O494   2.447   1_455  S
Zr475       O502   2.417   1_455  S
Zr475       O490   2.445   1_455  S
Zr475       O481   2.407       .  S
Zr475       O482   2.412       .  S
Zr475       O483   2.376       .  S
Zr475       O484   2.380       .  S
Zr476       O495   2.436       .  S
Zr476       O488   2.436       .  S
Zr476       O489   2.391       .  S
Zr476       O482   2.387       .  S
Zr476       O483   2.387       .  S
Zr477       O479   2.434       .  S
Zr477       O501   2.437       .  S
Zr477       O503   2.456   1_455  S
Zr477       O481   2.386       .  S
Zr477       O484   2.386       .  S
Zr478       O504   2.436       .  S
Zr478       O505   2.434       .  S
Zr478       O480   2.436       .  S
Zr478       O481   2.398       .  S
Zr478       O482   2.401       .  S
O479        H516   0.990       .  S
O480        H511   0.990       .  S
O480        H525   0.990       .  S
O482        H508   0.965       .  S
O483       Zr493   2.367       .  S
O484       Zr493   2.374       .  S
O484        H509   0.965       .  S
C485       C3536   1.470       .  S
C486       C3651   1.469       .  S
C487       C3568   1.471       .  S
O488        H524   0.990       .  S
O489        C491   1.278       .  A
O490        C491   1.286   1_655  A
C491       C3523   1.463       .  S
O492       Zr493   2.434       .  S
O492        H521   0.990       .  S
Zr493       O496   2.438       .  S
Zr493       O497   2.437       .  S
Zr493       O498   2.427       .  S
O494        C499   1.285       .  A
O495        H512   0.990       .  S
O495        H527   0.990       .  S
O496        H513   0.990       .  S
O497        H517   0.990       .  S
O497        H526   0.990       .  S
O498        C499   1.283   1_455  A
C499       C3587   1.471       .  S
O500        H519   0.990       .  S
O500        H523   0.990       .  S
O501        H515   0.990       .  S
O501        H522   0.990       .  S
O502        C506   1.281       .  A
O503        C506   1.289       .  A
O504        H514   0.990       .  S
O505        H518   0.990       .  S
C506       C3552   1.472       .  S
Zr529       O530   2.441       .  S
Zr529       O531   2.429       .  S
Zr529       O532   2.465       .  S
Zr529       O535   2.453       .  S
Zr529       O537   2.376       .  S
Zr529       O538   2.392       .  S
Zr529       O539   2.409       .  S
Zr529       O540   2.395       .  S
O530        H586   0.991       .  S
O530        H594   0.990       .  S
O531        C551   1.283       .  A
O532        C553   1.289       .  A
O533       Zr543   2.432       .  S
O533        C552   1.285       .  A
O534       Zr542   2.372       .  S
O534        C553   1.273       .  A
O535        C552   1.287       .  A
O536       Zr544   2.449       .  S
O536        C551   1.287       .  A
O537       Zr542   2.379       .  S
O537       Zr544   2.367       .  S
O538       Zr543   2.389       .  S
O538       Zr544   2.383       .  S
O538        H573   0.965       .  S
O539       Zr542   2.392       .  S
O539       Zr559   2.403       .  S
O539        H576   0.966       .  S
O540       Zr543   2.388       .  S
O540       Zr559   2.378       .  S
Zr541       O566   2.439       .  S
Zr541       O560   2.452       .  S
Zr541       O568   2.425       .  S
Zr541       O556   2.464       .  S
Zr541       O547   2.417       .  S
Zr541       O548   2.410       .  S
Zr541       O549   2.373       .  S
Zr541       O550   2.389       .  S
Zr542       O561   2.437       .  S
Zr542       O554   2.436       .  S
Zr542       O555   2.385       .  S
Zr542       O548   2.381       .  S
Zr542       O549   2.383       .  S
Zr543       O545   2.436       .  S
Zr543       O567   2.439       .  S
Zr543       O569   2.443       .  S
Zr543       O547   2.385       .  S
Zr543       O550   2.386       .  S
Zr544       O570   2.434       .  S
Zr544       O571   2.436       .  S
Zr544       O546   2.436       .  S
Zr544       O547   2.399       .  S
Zr544       O548   2.413       .  S
O545        H582   0.990       .  S
O546        H577   0.990       .  S
O546        H591   0.990       .  S
O548        H574   0.966       .  S
O549       Zr559   2.368       .  S
O550       Zr559   2.385       .  S
O550        H575   0.965       .  S
C551       C3472   1.475       .  S
C552       C3504   1.469       .  S
C553       C3488   1.460       .  S
O554        H590   0.990       .  S
O555        C557   1.275       .  A
O556        C557   1.289       .  A
C557       C3459   1.466       .  S
O558       Zr559   2.440       .  S
O558        H587   0.990       .  S
Zr559       O562   2.437       .  S
Zr559       O563   2.439       .  S
Zr559       O564   2.411       .  S
O560        C565   1.286       .  A
O561        H578   0.990       .  S
O561        H593   0.990       .  S
O562        H579   0.990       .  S
O563        H583   0.990       .  S
O563        H592   0.990       .  S
O564        C565   1.280       .  A
C565       C3635   1.464       .  S
O566        H585   0.990       .  S
O566        H589   0.990       .  S
O567        H581   0.990       .  S
O567        H588   0.990       .  S
O568        C572   1.284       .  A
O569        C572   1.286       .  A
O570        H580   0.990       .  S
O571        H584   0.990       .  S
C572       C3859   1.470       .  S
Zr595       O596   2.442       .  S
Zr595       O597   2.434       .  S
Zr595       O598   2.463       .  S
Zr595       O601   2.431       .  S
Zr595       O603   2.373       .  S
Zr595       O604   2.393       .  S
Zr595       O605   2.404       .  S
Zr595       O606   2.399       .  S
O596        H652   0.991       .  S
O596        H660   0.990       .  S
O597        C617   1.283       .  A
O598        C619   1.288       .  A
O599       Zr609   2.437   1_556  S
O599        C618   1.285       .  A
O600       Zr608   2.399       .  S
O600        C619   1.277       .  A
O601        C618   1.285   1_554  A
O602       Zr610   2.438       .  S
O602        C617   1.284       .  A
O603       Zr608   2.380       .  S
O603       Zr610   2.372       .  S
O604       Zr609   2.400       .  S
O604       Zr610   2.382       .  S
O604        H639   0.966       .  S
O605       Zr608   2.392       .  S
O605       Zr625   2.403       .  S
O605        H642   0.965       .  S
O606       Zr609   2.387       .  S
O606       Zr625   2.383       .  S
Zr607       O632   2.444   1_655  S
Zr607       O626   2.446       .  S
Zr607       O634   2.432   1_655  S
Zr607       O622   2.458       .  S
Zr607       O613   2.412       .  S
Zr607       O614   2.414       .  S
Zr607       O615   2.377       .  S
Zr607       O616   2.384       .  S
Zr608       O627   2.438       .  S
Zr608       O620   2.435       .  S
Zr608       O621   2.386       .  S
Zr608       O614   2.389       .  S
Zr608       O615   2.386       .  S
Zr609       O611   2.436   1_554  S
Zr609       O633   2.439   1_554  S
Zr609       O635   2.445       .  S
Zr609       O613   2.390       .  S
Zr609       O616   2.386       .  S
Zr610       O636   2.435       .  S
Zr610       O637   2.435       .  S
Zr610       O612   2.436       .  S
Zr610       O613   2.400       .  S
Zr610       O614   2.408       .  S
O611        H648   0.990       .  S
O612        H643   0.990       .  S
O612        H657   0.990       .  S
O614        H640   0.966       .  S
O615       Zr625   2.366       .  S
O616       Zr625   2.379       .  S
O616        H641   0.966       .  S
C617       C3395   1.475       .  S
C618       C3507   1.467       .  S
C619       C3424   1.470       .  S
O620        H656   0.990       .  S
O621        C623   1.276       .  A
O622        C623   1.288       .  A
C623       C3520   1.466       .  S
O624       Zr625   2.438       .  S
O624        H653   0.990       .  S
Zr625       O628   2.437       .  S
Zr625       O629   2.440       .  S
Zr625       O630   2.429       .  S
O626        C631   1.285       .  A
O627        H644   0.990       .  S
O627        H659   0.990       .  S
O628        H645   0.990       .  S
O629        H649   0.990       .  S
O629        H658   0.990       .  S
O630        C631   1.283       .  A
C631       C3440   1.470   1_655  S
O632        H651   0.990       .  S
O632        H655   0.990   1_455  S
O633        H647   0.990       .  S
O633        H654   0.990       .  S
O634        C638   1.284       .  A
O635        C638   1.287   1_655  A
O636        H646   0.990       .  S
O637        H650   0.990       .  S
C638       C3411   1.471       .  S
Zr661       O662   2.441       .  S
Zr661       O663   2.418       .  S
Zr661       O664   2.457       .  S
Zr661       O667   2.429       .  S
Zr661       O669   2.375       .  S
Zr661       O670   2.397       .  S
Zr661       O671   2.405       .  S
Zr661       O672   2.388       .  S
O662        H718   0.991       .  S
O662        H726   0.990       .  S
O663        C683   1.280       .  A
O664        C685   1.287       .  A
O665       Zr675   2.452       .  S
O665        C684   1.288       .  A
O666       Zr674   2.390       .  S
O666        C685   1.276       .  A
O667        C684   1.283       .  A
O668       Zr676   2.461       .  S
O668        C683   1.288       .  A
O669       Zr674   2.387       .  S
O669       Zr676   2.374       .  S
O670       Zr675   2.392       .  S
O670       Zr676   2.381       .  S
O670        H705   0.967       .  S
O671       Zr674   2.389       .  S
O671       Zr691   2.406       .  S
O671        H708   0.965       .  S
O672       Zr675   2.382       .  S
O672       Zr691   2.370       .  S
Zr673       O698   2.446       .  S
Zr673       O692   2.477       .  S
Zr673       O700   2.429       .  S
Zr673       O688   2.468       .  S
Zr673       O679   2.422       .  S
Zr673       O680   2.415       .  S
Zr673       O681   2.377       .  S
Zr673       O682   2.385       .  S
Zr674       O693   2.436       .  S
Zr674       O686   2.436       .  S
Zr674       O687   2.384       .  S
Zr674       O680   2.387       .  S
Zr674       O681   2.390       .  S
Zr675       O677   2.436       .  S
Zr675       O699   2.437       .  S
Zr675       O701   2.450       .  S
Zr675       O679   2.393       .  S
Zr675       O682   2.380       .  S
Zr676       O702   2.435       .  S
Zr676       O703   2.436       .  S
Zr676       O678   2.438       .  S
Zr676       O679   2.406       .  S
Zr676       O680   2.413       .  S
O677        H714   0.990       .  S
O678        H709   0.990       .  S
O678        H723   0.990       .  S
O680        H706   0.967       .  S
O681       Zr691   2.373       .  S
O682       Zr691   2.384       .  S
O682        H707   0.964       .  S
C683       C3696   1.475       .  S
C684       C3376   1.464       .  S
C685       C3923   1.465       .  S
O686        H722   0.990       .  S
O687        C689   1.276       .  A
O688        C689   1.290       .  A
C689       C3600   1.471   1_554  S
O690       Zr691   2.438       .  S
O690        H719   0.990   1_455  S
Zr691       O694   2.437       .  S
Zr691       O695   2.441       .  S
Zr691       O696   2.407       .  S
O692        C697   1.291       .  A
O693        H710   0.990       .  S
O693        H725   0.991   1_554  S
O694        H711   0.990       .  S
O695        H715   0.990       .  S
O695        H724   0.990       .  S
O696        C697   1.279       .  A
C697       C3443   1.473       .  S
O698        H717   0.990       .  S
O698        H721   0.990       .  S
O699        H713   0.990       .  S
O699        H720   0.990       .  S
O700        C704   1.283       .  A
O701        C704   1.287       .  A
O702        H712   0.990       .  S
O703        H716   0.990       .  S
C704       C3360   1.473       .  S
Zr727       O728   2.440       .  S
Zr727       O729   2.424       .  S
Zr727       O730   2.466       .  S
Zr727       O733   2.437       .  S
Zr727       O735   2.375       .  S
Zr727       O736   2.398       .  S
Zr727       O737   2.405       .  S
Zr727       O738   2.396       .  S
O728        H784   0.991       .  S
O728        H792   0.990       .  S
O729        C749   1.281       .  A
O730        C751   1.288       .  A
O731       Zr741   2.429       .  S
O731        C750   1.284       .  A
O732       Zr740   2.392       .  S
O732        C751   1.277       .  A
O733        C750   1.284       .  A
O734       Zr742   2.455       .  S
O734        C749   1.287       .  A
O735       Zr740   2.382       .  S
O735       Zr742   2.368       .  S
O736       Zr741   2.393       .  S
O736       Zr742   2.383       .  S
O736        H771   0.966       .  S
O737       Zr740   2.391       .  S
O737       Zr757   2.402       .  S
O737        H774   0.965       .  S
O738       Zr741   2.393       .  S
O738       Zr757   2.384       .  S
Zr739       O764   2.441       .  S
Zr739       O758   2.471       .  S
Zr739       O766   2.429       .  S
Zr739       O754   2.464       .  S
Zr739       O745   2.421       .  S
Zr739       O746   2.418       .  S
Zr739       O747   2.372       .  S
Zr739       O748   2.382       .  S
Zr740       O759   2.439       .  S
Zr740       O752   2.437       .  S
Zr740       O753   2.384       .  S
Zr740       O746   2.387       .  S
Zr740       O747   2.386       .  S
Zr741       O743   2.436       .  S
Zr741       O765   2.438       .  S
Zr741       O767   2.445       .  S
Zr741       O745   2.386       .  S
Zr741       O748   2.381       .  S
Zr742       O768   2.436       .  S
Zr742       O769   2.436       .  S
Zr742       O744   2.437       .  S
Zr742       O745   2.410       .  S
Zr742       O746   2.412       .  S
O743        H780   0.990       .  S
O744        H775   0.990       .  S
O744        H789   0.990       .  S
O746        H772   0.966       .  S
O747       Zr757   2.363       .  S
O748       Zr757   2.384       .  S
O748        H773   0.966       .  S
C749       C4051   1.477       .  S
C750       C3379   1.465       .  S
C751       C3840   1.469       .  S
O752        H788   0.990       .  S
O753        C755   1.275       .  A
O754        C755   1.290       .  A
C755       C3456   1.465       .  S
O756       Zr757   2.436       .  S
O756        H785   0.990       .  S
Zr757       O760   2.436       .  S
Zr757       O761   2.441       .  S
Zr757       O762   2.414       .  S
O758        C763   1.290       .  A
O759        H776   0.990       .  S
O759        H791   0.990       .  S
O760        H777   0.990       .  S
O761        H781   0.990       .  S
O761        H790   0.990       .  S
O762        C763   1.280       .  A
C763       C3584   1.473       .  S
O764        H783   0.990       .  S
O764        H787   0.990       .  S
O765        H779   0.990       .  S
O765        H786   0.990       .  S
O766        C770   1.284       .  A
O767        C770   1.286       .  A
O768        H778   0.990       .  S
O769        H782   0.990       .  S
C770       C3344   1.472       .  S
Zr793       O794   2.441       .  S
Zr793       O795   2.444       .  S
Zr793       O796   2.447       .  S
Zr793       O799   2.455       .  S
Zr793       O801   2.387       .  S
Zr793       O802   2.385       .  S
Zr793       O803   2.412       .  S
Zr793       O804   2.401       .  S
O794        H850   0.991       .  S
O794        H858   0.990       .  S
O795        C815   1.283       .  A
O796        C817   1.286       .  A
O797       Zr807   2.398       .  S
O797        C816   1.277       .  A
O798       Zr806   2.429       .  S
O798        C817   1.283       .  A
O799        C816   1.288       .  A
O800       Zr808   2.435       .  S
O800        C815   1.284       .  A
O801       Zr806   2.403       .  S
O801       Zr808   2.383       .  S
O802       Zr807   2.383       .  S
O802       Zr808   2.377       .  S
O802        H837   0.966       .  S
O803       Zr806   2.407       .  S
O803       Zr823   2.385       .  S
O803        H840   0.964       .  S
O804       Zr807   2.385       .  S
O804       Zr823   2.389       .  S
Zr805       O830   2.440       .  S
Zr805       O824   2.448       .  S
Zr805       O832   2.462       .  S
Zr805       O820   2.442       .  S
Zr805       O811   2.410       .  S
Zr805       O812   2.414       .  S
Zr805       O813   2.380       .  S
Zr805       O814   2.379       .  S
Zr806       O825   2.435       .  S
Zr806       O818   2.436       .  S
Zr806       O819   2.443       .  S
Zr806       O812   2.396       .  S
Zr806       O813   2.386       .  S
Zr807       O809   2.436       .  S
Zr807       O831   2.436       .  S
Zr807       O833   2.398       .  S
Zr807       O811   2.383       .  S
Zr807       O814   2.388       .  S
Zr808       O834   2.436       .  S
Zr808       O835   2.436       .  S
Zr808       O810   2.438       .  S
Zr808       O811   2.407       .  S
Zr808       O812   2.398       .  S
O809        H846   0.991       .  S
O810        H841   0.990       .  S
O810        H855   0.990       .  S
O812        H838   0.966       .  S
O813       Zr823   2.374       .  S
O814       Zr823   2.365       .  S
O814        H839   0.965       .  S
C815       C3347   1.477       .  S
C816       C3427   1.465       .  S
C817       C3312   1.466       .  S
O818        H854   0.990       .  S
O819        C821   1.286       .  A
O820        C821   1.286       .  A
C821       C3296   1.471       .  S
O822       Zr823   2.434       .  S
O822        H851   0.990       .  S
Zr823       O826   2.436       .  S
Zr823       O827   2.438       .  S
Zr823       O828   2.426       .  S
O824        C829   1.286       .  A
O825        H842   0.990       .  S
O825        H857   0.990       .  S
O826        H843   0.990       .  S
O827        H847   0.990       .  S
O827        H856   0.990       .  S
O828        C829   1.282       .  A
C829       C3328   1.470       .  S
O830        H849   0.990       .  S
O830        H853   0.990       .  S
O831        H845   0.990       .  S
O831        H852   0.990       .  S
O832        C836   1.290       .  A
O833        C836   1.277       .  A
O834        H844   0.990       .  S
O835        H848   0.990       .  S
C836       C3280   1.468       .  S
Zr859       O860   2.443       .  S
Zr859       O861   2.448       .  S
Zr859       O862   2.452       .  S
Zr859       O865   2.456       .  S
Zr859       O867   2.388       .  S
Zr859       O868   2.385       .  S
Zr859       O869   2.416       .  S
Zr859       O870   2.408       .  S
O860        H916   0.991       .  S
O860        H924   0.990       .  S
O861        C881   1.285       .  A
O862        C883   1.285       .  A
O863       Zr873   2.385       .  S
O863        C882   1.275       .  A
O864       Zr872   2.432       .  S
O864        C883   1.283       .  A
O865        C882   1.287       .  A
O866       Zr874   2.428       .  S
O866        C881   1.282       .  A
O867       Zr872   2.400       .  S
O867       Zr874   2.388       .  S
O868       Zr873   2.385       .  S
O868       Zr874   2.373       .  S
O868        H903   0.966       .  S
O869       Zr872   2.410       .  S
O869       Zr889   2.383       .  S
O869        H906   0.964       .  S
O870       Zr873   2.386       .  S
O870       Zr889   2.393       .  S
Zr871       O896   2.438       .  S
Zr871       O890   2.464       .  S
Zr871       O898   2.452       .  S
Zr871       O886   2.421       .  S
Zr871       O877   2.408       .  S
Zr871       O878   2.418       .  S
Zr871       O879   2.377       .  S
Zr871       O880   2.372       .  S
Zr872       O891   2.438       .  S
Zr872       O884   2.436       .  S
Zr872       O885   2.436       .  S
Zr872       O878   2.403       .  S
Zr872       O879   2.397       .  S
Zr873       O875   2.435       .  S
Zr873       O897   2.438       .  S
Zr873       O899   2.395       .  S
Zr873       O877   2.381       .  S
Zr873       O880   2.386       .  S
Zr874       O900   2.437       .  S
Zr874       O901   2.436       .  S
Zr874       O876   2.437       .  S
Zr874       O877   2.400       .  S
Zr874       O878   2.400       .  S
O875        H912   0.990       .  S
O876        H907   0.990       .  S
O876        H921   0.990       .  S
O878        H904   0.966       .  S
O879       Zr889   2.377       .  S
O880       Zr889   2.365       .  S
O880        H905   0.965       .  S
C881       C3555   1.475       .  S
C882       C3491   1.462       .  S
C883       C3315   1.465       .  S
O884        H920   0.990       .  S
O885        C887   1.284       .  A
O886        C887   1.282       .  A
C887       C3251   1.463       .  S
O888       Zr889   2.435       .  S
O888        H917   0.990       .  S
Zr889       O892   2.435       .  S
Zr889       O893   2.443       .  S
Zr889       O894   2.416       .  S
O890        C895   1.288       .  A
O891        H908   0.990       .  S
O891        H923   0.990       .  S
O892        H909   0.990       .  S
O893        H913   0.990       .  S
O893        H922   0.989       .  S
O894        C895   1.280       .  A
C895       C3264   1.475       .  S
O896        H915   0.990       .  S
O896        H919   0.990       .  S
O897        H911   0.990       .  S
O897        H918   0.990       .  S
O898        C902   1.288       .  A
O899        C902   1.277       .  A
O900        H910   0.990       .  S
O901        H914   0.990       .  S
C902       C3235   1.465       .  S
Zr925       O926   2.444       .  S
Zr925       O927   2.444       .  S
Zr925       O928   2.433       .  S
Zr925       O931   2.455       .  S
Zr925       O933   2.389       .  S
Zr925       O934   2.382       .  S
Zr925       O935   2.420       .  S
Zr925       O936   2.400       .  S
O926        H982   0.991       .  S
O926        H990   0.990       .  S
O927        C947   1.284       .  A
O928        C949   1.281   1_556  A
O929       Zr939   2.389       .  S
O929        C948   1.276       .  A
O930       Zr938   2.445   1_554  S
O930        C949   1.285       .  A
O931        C948   1.287       .  A
O932       Zr940   2.430       .  S
O932        C947   1.281       .  A
O933       Zr938   2.402       .  S
O933       Zr940   2.384       .  S
O934       Zr939   2.385       .  S
O934       Zr940   2.376       .  S
O934        H969   0.965       .  S
O935       Zr938   2.412       .  S
O935       Zr955   2.388       .  S
O935        H972   0.965       .  S
O936       Zr939   2.386       .  S
O936       Zr955   2.388       .  S
Zr937       O962   2.441       .  S
Zr937       O956   2.453       .  S
Zr937       O964   2.469       .  S
Zr937       O952   2.433       .  S
Zr937       O943   2.407       .  S
Zr937       O944   2.417       .  S
Zr937       O945   2.385       .  S
Zr937       O946   2.376       .  S
Zr938       O957   2.438   1_556  S
Zr938       O950   2.434   1_556  S
Zr938       O951   2.457       .  S
Zr938       O944   2.401       .  S
Zr938       O945   2.392       .  S
Zr939       O941   2.437       .  S
Zr939       O963   2.438       .  S
Zr939       O965   2.392       .  S
Zr939       O943   2.380       .  S
Zr939       O946   2.389       .  S
Zr940       O966   2.436       .  S
Zr940       O967   2.434       .  S
Zr940       O942   2.437       .  S
Zr940       O943   2.403       .  S
Zr940       O944   2.402       .  S
O941        H978   0.990       .  S
O942        H973   0.990       .  S
O942        H987   0.990       .  S
O944        H970   0.966       .  S
O945       Zr955   2.373       .  S
O946       Zr955   2.370       .  S
O946        H971   0.966       .  S
C947       C3171   1.472       .  S
C948       C3216   1.464       .  S
C949       C3200   1.462       .  S
O950        H986   0.990       .  S
O951        C953   1.289       .  A
O952        C953   1.285       .  A
C953       C3392   1.475       .  S
O954       Zr955   2.439       .  S
O954        H983   0.990       .  S
Zr955       O958   2.437       .  S
Zr955       O959   2.438       .  S
Zr955       O960   2.425       .  S
O956        C961   1.287       .  A
O957        H974   0.990       .  S
O957        H989   0.990       .  S
O958        H975   0.990       .  S
O959        H979   0.990       .  S
O959        H988   0.990       .  S
O960        C961   1.282       .  A
C961       C3184   1.473       .  S
O962        H981   0.990       .  S
O962        H985   0.990       .  S
O963        H977   0.990       .  S
O963        H984   0.990       .  S
O964        C968   1.291       .  A
O965        C968   1.276       .  A
O966        H976   0.990       .  S
O967        H980   0.990       .  S
C968       C3232   1.470       .  S
Zr991       O992   2.443       .  S
Zr991       O993   2.442       .  S
Zr991       O994   2.442       .  S
Zr991       O997   2.458       .  S
Zr991       O999   2.391       .  S
Zr991      O1000   2.380       .  S
Zr991      O1001   2.414       .  S
Zr991      O1002   2.404       .  S
O992       H1048   0.991       .  S
O992       H1056   0.990       .  S
O993       C1013   1.285       .  A
O994       C1015   1.284       .  A
O995      Zr1005   2.378       .  S
O995       C1014   1.274       .  A
O996      Zr1004   2.435       .  S
O996       C1015   1.285       .  A
O997       C1014   1.288       .  A
O998      Zr1006   2.437       .  S
O998       C1013   1.284       .  A
O999      Zr1004   2.396       .  S
O999      Zr1006   2.381       .  S
O1000     Zr1005   2.382       .  S
O1000     Zr1006   2.372       .  S
O1000      H1035   0.966       .  S
O1001     Zr1004   2.411       .  S
O1001     Zr1021   2.381       .  S
O1001      H1038   0.965       .  S
O1002     Zr1005   2.386       .  S
O1002     Zr1021   2.395       .  S
Zr1003     O1028   2.440       .  S
Zr1003     O1022   2.460       .  S
Zr1003     O1030   2.478       .  S
Zr1003     O1018   2.430       .  S
Zr1003     O1009   2.405       .  S
Zr1003     O1010   2.423       .  S
Zr1003     O1011   2.385       .  S
Zr1003     O1012   2.377       .  S
Zr1004     O1023   2.438       .  S
Zr1004     O1016   2.435       .  S
Zr1004     O1017   2.448       .  S
Zr1004     O1010   2.397       .  S
Zr1004     O1011   2.387       .  S
Zr1005     O1007   2.435       .  S
Zr1005     O1029   2.437       .  S
Zr1005     O1031   2.391       .  S
Zr1005     O1009   2.376       .  S
Zr1005     O1012   2.385       .  S
Zr1006     O1032   2.434       .  S
Zr1006     O1033   2.435       .  S
Zr1006     O1008   2.440       .  S
Zr1006     O1009   2.403       .  S
Zr1006     O1010   2.398       .  S
O1007      H1044   0.990       .  S
O1008      H1039   0.990       .  S
O1008      H1053   0.990       .  S
O1010      H1036   0.966       .  S
O1011     Zr1021   2.371       .  S
O1012     Zr1021   2.373       .  S
O1012      H1037   0.965       .  S
C1013      C3139   1.477       .  S
C1014      C3152   1.462       .  S
C1015      C3203   1.469       .  S
O1016      H1052   0.990       .  S
O1017      C1019   1.287       .  A
O1018      C1019   1.285       .  A
C1019      C3123   1.471       .  S
O1020     Zr1021   2.439       .  S
O1020      H1049   0.990       .  S
Zr1021     O1024   2.437       .  S
Zr1021     O1025   2.440       .  S
Zr1021     O1026   2.422       .  S
O1022      C1027   1.288       .  A
O1023      H1040   0.990       .  S
O1023      H1055   0.990       .  S
O1024      H1041   0.990       .  S
O1025      H1045   0.990       .  S
O1025      H1054   0.990       .  S
O1026      C1027   1.282       .  A
C1027      C3331   1.475       .  S
O1028      H1047   0.990       .  S
O1028      H1051   0.990       .  S
O1029      H1043   0.990       .  S
O1029      H1050   0.990       .  S
O1030      C1034   1.293       .  A
O1031      C1034   1.275       .  A
O1032      H1042   0.990       .  S
O1033      H1046   0.990       .  S
C1034      C3104   1.474       .  S
Zr1057     O1058   2.442       .  S
Zr1057     O1059   2.437       .  S
Zr1057     O1060   2.449       .  S
Zr1057     O1063   2.455       .  S
Zr1057     O1065   2.387       .  S
Zr1057     O1066   2.385       .  S
Zr1057     O1067   2.411       .  S
Zr1057     O1068   2.404       .  S
O1058      H1114   0.991       .  S
O1058      H1122   0.990       .  S
O1059      C1079   1.284       .  A
O1060      C1081   1.285       .  A
O1061     Zr1071   2.385       .  S
O1061      C1080   1.275       .  A
O1062     Zr1070   2.453       .  S
O1062      C1081   1.288       .  A
O1063      C1080   1.288       .  A
O1064     Zr1072   2.433       .  S
O1064      C1079   1.282       .  A
O1065     Zr1070   2.399       .  S
O1065     Zr1072   2.386       .  S
O1066     Zr1071   2.386       .  S
O1066     Zr1072   2.368       .  S
O1066      H1101   0.966       .  S
O1067     Zr1070   2.410       .  S
O1067     Zr1087   2.376       .  S
O1067      H1104   0.964       .  S
O1068     Zr1071   2.390       .  S
O1068     Zr1087   2.391       .  S
Zr1069     O1094   2.443       .  S
Zr1069     O1088   2.469       .  S
Zr1069     O1096   2.471       .  S
Zr1069     O1084   2.434       .  S
Zr1069     O1075   2.415       .  S
Zr1069     O1076   2.421       .  S
Zr1069     O1077   2.383       .  S
Zr1069     O1078   2.381       .  S
Zr1070     O1089   2.438       .  S
Zr1070     O1082   2.435       .  S
Zr1070     O1083   2.457       .  S
Zr1070     O1076   2.403       .  S
Zr1070     O1077   2.387       .  S
Zr1071     O1073   2.436       .  S
Zr1071     O1095   2.439       .  S
Zr1071     O1097   2.393       .  S
Zr1071     O1075   2.381       .  S
Zr1071     O1078   2.387       .  S
Zr1072     O1098   2.438       .  S
Zr1072     O1099   2.435       .  S
Zr1072     O1074   2.437       .  S
Zr1072     O1075   2.404       .  S
Zr1072     O1076   2.394       .  S
O1073      H1110   0.990       .  S
O1074      H1105   0.990       .  S
O1074      H1119   0.990       .  S
O1076      H1102   0.966       .  S
O1077     Zr1087   2.374       .  S
O1078     Zr1087   2.364       .  S
O1078      H1103   0.965       .  S
C1079      C3043   1.473       .  S
C1080      C3075   1.461       .  S
C1081      C3091   1.473       .  S
O1082      H1118   0.990       .  S
O1083      C1085   1.290       .  A
O1084      C1085   1.285       .  A
C1085      C3056   1.475       .  S
O1086     Zr1087   2.436       .  S
O1086      H1115   0.990       .  S
Zr1087     O1090   2.434       .  S
Zr1087     O1091   2.438       .  S
Zr1087     O1092   2.408       .  S
O1088      C1093   1.289       .  A
O1089      H1106   0.990       .  S
O1089      H1121   0.990       .  S
O1090      H1107   0.990       .  S
O1091      H1111   0.990       .  S
O1091      H1120   0.990       .  S
O1092      C1093   1.280       .  A
C1093      C3267   1.476       .  S
O1094      H1113   0.990       .  S
O1094      H1117   0.990       .  S
O1095      H1109   0.990       .  S
O1095      H1116   0.990       .  S
O1096      C1100   1.291       .  A
O1097      C1100   1.277       .  A
O1098      H1108   0.990       .  S
O1099      H1112   0.990       .  S
C1100      C3107   1.470       .  S
Zr1123     O1124   2.441       .  S
Zr1123     O1125   2.433       .  S
Zr1123     O1126   2.441       .  S
Zr1123     O1129   2.457       .  S
Zr1123     O1131   2.388       .  S
Zr1123     O1132   2.379       .  S
Zr1123     O1133   2.410       .  S
Zr1123     O1134   2.401       .  S
O1124      H1180   0.991       .  S
O1124      H1188   0.990       .  S
O1125      C1145   1.283       .  A
O1126      C1147   1.284       .  A
O1127     Zr1137   2.392       .  S
O1127      C1146   1.277       .  A
O1128     Zr1136   2.443       .  S
O1128      C1147   1.287       .  A
O1129      C1146   1.288       .  A
O1130     Zr1138   2.441       .  S
O1130      C1145   1.284       .  A
O1131     Zr1136   2.395       .  S
O1131     Zr1138   2.379       .  S
O1132     Zr1137   2.384       .  S
O1132     Zr1138   2.366       .  S
O1132      H1167   0.966       .  S
O1133     Zr1136   2.413       .  S
O1133     Zr1153   2.377       .  S
O1133      H1170   0.964       .  S
O1134     Zr1137   2.384       .  S
O1134     Zr1153   2.393       .  S
Zr1135     O1160   2.439       .  S
Zr1135     O1154   2.475       .  S
Zr1135     O1162   2.472       .  S
Zr1135     O1150   2.443       .  S
Zr1135     O1141   2.414       .  S
Zr1135     O1142   2.425       .  S
Zr1135     O1143   2.383       .  S
Zr1135     O1144   2.378       .  S
Zr1136     O1155   2.437       .  S
Zr1136     O1148   2.435       .  S
Zr1136     O1149   2.450       .  S
Zr1136     O1142   2.403       .  S
Zr1136     O1143   2.395       .  S
Zr1137     O1139   2.435       .  S
Zr1137     O1161   2.438       .  S
Zr1137     O1163   2.387       .  S
Zr1137     O1141   2.382       .  S
Zr1137     O1144   2.388       .  S
Zr1138     O1164   2.436       .  S
Zr1138     O1165   2.436       .  S
Zr1138     O1140   2.436       .  S
Zr1138     O1141   2.404       .  S
Zr1138     O1142   2.402       .  S
O1139      H1176   0.990   1_556  S
O1140      H1171   0.990       .  S
O1140      H1185   0.990       .  S
O1142      H1168   0.966       .  S
O1143     Zr1153   2.378       .  S
O1144     Zr1153   2.368       .  S
O1144      H1169   0.966       .  S
C1145      C3011   1.476       .  S
C1146      C3024   1.468       .  S
C1147      C3088   1.468       .  S
O1148      H1184   0.990       .  S
O1149      C1151   1.287       .  A
O1150      C1151   1.287       .  A
C1151      C3475   1.477       .  S
O1152     Zr1153   2.437       .  S
O1152      H1181   0.990       .  S
Zr1153     O1156   2.435       .  S
Zr1153     O1157   2.439       .  S
Zr1153     O1158   2.409       .  S
O1154      C1159   1.290       .  A
O1155      H1172   0.990       .  S
O1155      H1187   0.990       .  S
O1156      H1173   0.990       .  S
O1157      H1177   0.990       .  S
O1157      H1186   0.990       .  S
O1158      C1159   1.279       .  A
C1159      C3187   1.476       .  S
O1160      H1179   0.990       .  S
O1160      H1183   0.990       .  S
O1161      H1175   0.990   1_556  S
O1161      H1182   0.990       .  S
O1162      C1166   1.292       .  A
O1163      C1166   1.276       .  A
O1164      H1174   0.990       .  S
O1165      H1178   0.990       .  S
C1166      C3283   1.470   1_556  S
Zr1189     O1190   2.443       .  S
Zr1189     O1191   2.420       .  S
Zr1189     O1192   2.451       .  S
Zr1189     O1195   2.434       .  S
Zr1189     O1197   2.372       .  S
Zr1189     O1198   2.393       .  S
Zr1189     O1199   2.404       .  S
Zr1189     O1200   2.391       .  S
O1190      H1246   0.991       .  S
O1190      H1254   0.990       .  S
O1191      C1211   1.281       .  A
O1192      C1213   1.285       .  A
O1193     Zr1203   2.441       .  S
O1193      C1212   1.286       .  A
O1194     Zr1202   2.377       .  S
O1194      C1213   1.273       .  A
O1195      C1212   1.284       .  A
O1196     Zr1204   2.458       .  S
O1196      C1211   1.287       .  A
O1197     Zr1202   2.383       .  S
O1197     Zr1204   2.368       .  S
O1198     Zr1203   2.395       .  S
O1198     Zr1204   2.385       .  S
O1198      H1233   0.966       .  S
O1199     Zr1202   2.393       .  S
O1199     Zr1219   2.399       .  S
O1199      H1236   0.966       .  S
O1200     Zr1203   2.387       .  S
O1200     Zr1219   2.371       .  S
Zr1201     O1226   2.439       .  S
Zr1201     O1220   2.470       .  S
Zr1201     O1228   2.437       .  S
Zr1201     O1216   2.482       .  S
Zr1201     O1207   2.423       .  S
Zr1201     O1208   2.412       .  S
Zr1201     O1209   2.372       .  S
Zr1201     O1210   2.386       .  S
Zr1202     O1221   2.437       .  S
Zr1202     O1214   2.436       .  S
Zr1202     O1215   2.384       .  S
Zr1202     O1208   2.380       .  S
Zr1202     O1209   2.385       .  S
Zr1203     O1205   2.436       .  S
Zr1203     O1227   2.439       .  S
Zr1203     O1229   2.446       .  S
Zr1203     O1207   2.389       .  S
Zr1203     O1210   2.388       .  S
Zr1204     O1230   2.436       .  S
Zr1204     O1231   2.435       .  S
Zr1204     O1206   2.437       .  S
Zr1204     O1207   2.409       .  S
Zr1204     O1208   2.414       .  S
O1205      H1242   0.990       .  S
O1206      H1237   0.990       .  S
O1206      H1251   0.990       .  S
O1208      H1234   0.966       .  S
O1209     Zr1219   2.373       .  S
O1210     Zr1219   2.386       .  S
O1210      H1235   0.965       .  S
C1211      C3299   1.480       .  S
C1212      C2976   1.462       .  S
C1213      C3072   1.455       .  S
O1214      H1250   0.990       .  S
O1215      C1217   1.275       .  A
O1216      C1217   1.293       .  A
C1217      C2947   1.474       .  S
O1218     Zr1219   2.440       .  S
O1218      H1247   0.990       .  S
Zr1219     O1222   2.436       .  S
Zr1219     O1223   2.440       .  S
Zr1219     O1224   2.401       .  S
O1220      C1225   1.290       .  A
O1221      H1238   0.990       .  S
O1221      H1253   0.990       .  S
O1222      H1239   0.990       .  S
O1223      H1243   0.990       .  S
O1223      H1252   0.990       .  S
O1224      C1225   1.278       .  A
C1225      C2995   1.469       .  S
O1226      H1245   0.990       .  S
O1226      H1249   0.990       .  S
O1227      H1241   0.990       .  S
O1227      H1248   0.990       .  S
O1228      C1232   1.286       .  A
O1229      C1232   1.287       .  A
O1230      H1240   0.990       .  S
O1231      H1244   0.990       .  S
C1232      C2960   1.476       .  S
Zr1255     O1256   2.441       .  S
Zr1255     O1257   2.435       .  S
Zr1255     O1258   2.460       .  S
Zr1255     O1261   2.427       .  S
Zr1255     O1263   2.376       .  S
Zr1255     O1264   2.390       .  S
Zr1255     O1265   2.402       .  S
Zr1255     O1266   2.401       .  S
O1256      H1312   0.991       .  S
O1256      H1320   0.990       .  S
O1257      C1277   1.283       .  A
O1258      C1279   1.287       .  A
O1259     Zr1269   2.427       .  S
O1259      C1278   1.284       .  A
O1260     Zr1268   2.384       .  S
O1260      C1279   1.275       .  A
O1261      C1278   1.283       .  A
O1262     Zr1270   2.430       .  S
O1262      C1277   1.282       .  A
O1263     Zr1268   2.385       .  S
O1263     Zr1270   2.373       .  S
O1264     Zr1269   2.395       .  S
O1264     Zr1270   2.377       .  S
O1264      H1299   0.967       .  S
O1265     Zr1268   2.392       .  S
O1265     Zr1285   2.396       .  S
O1265      H1302   0.965       .  S
O1266     Zr1269   2.392       .  S
O1266     Zr1285   2.389       .  S
Zr1267     O1292   2.440       .  S
Zr1267     O1286   2.443       .  S
Zr1267     O1294   2.434       .  S
Zr1267     O1282   2.447       .  S
Zr1267     O1273   2.406       .  S
Zr1267     O1274   2.407       .  S
Zr1267     O1275   2.378       .  S
Zr1267     O1276   2.380       .  S
Zr1268     O1287   2.440       .  S
Zr1268     O1280   2.436       .  S
Zr1268     O1281   2.388       .  S
Zr1268     O1274   2.385       .  S
Zr1268     O1275   2.385       .  S
Zr1269     O1271   2.435       .  S
Zr1269     O1293   2.438       .  S
Zr1269     O1295   2.447       .  S
Zr1269     O1273   2.388       .  S
Zr1269     O1276   2.383       .  S
Zr1270     O1296   2.435       .  S
Zr1270     O1297   2.435       .  S
Zr1270     O1272   2.436       .  S
Zr1270     O1273   2.399       .  S
Zr1270     O1274   2.397       .  S
O1271      H1308   0.990       .  S
O1272      H1303   0.990       .  S
O1272      H1317   0.990       .  S
O1274      H1300   0.966       .  S
O1275     Zr1285   2.369       .  S
O1276     Zr1285   2.375       .  S
O1276      H1301   0.966       .  S
C1277      C3120   1.470       .  S
C1278      C2979   1.462       .  S
C1279      C3027   1.465       .  S
O1280      H1316   0.990   1_554  S
O1281      C1283   1.276       .  A
O1282      C1283   1.288       .  A
C1283      C2912   1.458   1_554  S
O1284     Zr1285   2.438       .  S
O1284      H1313   0.991       .  S
Zr1285     O1288   2.438       .  S
Zr1285     O1289   2.440       .  S
Zr1285     O1290   2.424       .  S
O1286      C1291   1.285       .  A
O1287      H1304   0.990   1_554  S
O1287      H1319   0.990       .  S
O1288      H1305   0.990       .  S
O1289      H1309   0.990       .  S
O1289      H1318   0.990       .  S
O1290      C1291   1.282       .  A
C1291      C2928   1.466       .  S
O1292      H1311   0.990       .  S
O1292      H1315   0.990       .  S
O1293      H1307   0.990       .  S
O1293      H1314   0.990       .  S
O1294      C1298   1.285       .  A
O1295      C1298   1.287       .  A
O1296      H1306   0.990       .  S
O1297      H1310   0.990       .  S
C1298      C3683   1.476       .  S
Zr1321     O1322   2.442       .  S
Zr1321     O1323   2.427       .  S
Zr1321     O1324   2.449       .  S
Zr1321     O1327   2.429       .  S
Zr1321     O1329   2.379       .  S
Zr1321     O1330   2.389       .  S
Zr1321     O1331   2.407       .  S
Zr1321     O1332   2.396       .  S
O1322      H1378   0.991       .  S
O1322      H1386   0.990       .  S
O1323      C1343   1.282       .  A
O1324      C1345   1.285       .  A
O1325     Zr1335   2.434       .  S
O1325      C1344   1.285       .  A
O1326     Zr1334   2.397       .  S
O1326      C1345   1.278       .  A
O1327      C1344   1.283       .  A
O1328     Zr1336   2.447       .  S
O1328      C1343   1.285       .  A
O1329     Zr1334   2.385       .  S
O1329     Zr1336   2.366       .  S
O1330     Zr1335   2.394       .  S
O1330     Zr1336   2.382       .  S
O1330      H1365   0.966       .  S
O1331     Zr1334   2.392       .  S
O1331     Zr1351   2.397       .  S
O1331      H1368   0.966       .  S
O1332     Zr1335   2.387       .  S
O1332     Zr1351   2.385       .  S
Zr1333     O1358   2.440       .  S
Zr1333     O1352   2.449       .  S
Zr1333     O1360   2.432       .  S
Zr1333     O1348   2.461       .  S
Zr1333     O1339   2.413       .  S
Zr1333     O1340   2.415       .  S
Zr1333     O1341   2.376       .  S
Zr1333     O1342   2.382       .  S
Zr1334     O1353   2.435       .  S
Zr1334     O1346   2.435       .  S
Zr1334     O1347   2.401       .  S
Zr1334     O1340   2.383       .  S
Zr1334     O1341   2.384       .  S
Zr1335     O1337   2.436       .  S
Zr1335     O1359   2.434       .  S
Zr1335     O1361   2.438       .  S
Zr1335     O1339   2.389       .  S
Zr1335     O1342   2.380       .  S
Zr1336     O1362   2.435       .  S
Zr1336     O1363   2.435       .  S
Zr1336     O1338   2.436       .  S
Zr1336     O1339   2.403       .  S
Zr1336     O1340   2.409       .  S
O1337      H1374   0.990       .  S
O1338      H1369   0.990       .  S
O1338      H1383   0.990       .  S
O1340      H1366   0.966       .  S
O1341     Zr1351   2.369       .  S
O1342     Zr1351   2.379       .  S
O1342      H1367   0.965       .  S
C1343      C3971   1.475       .  S
C1344      C2896   1.463       .  S
C1345      C3715   1.464       .  S
O1346      H1382   0.990       .  S
O1347      C1349   1.280       .  A
O1348      C1349   1.289       .  A
C1349      C2867   1.475       .  S
O1350     Zr1351   2.439       .  S
O1350      H1379   0.990       .  S
Zr1351     O1354   2.438       .  S
Zr1351     O1355   2.438       .  S
Zr1351     O1356   2.424       .  S
O1352      C1357   1.286       .  A
O1353      H1370   0.990       .  S
O1353      H1385   0.990       .  S
O1354      H1371   0.990       .  S
O1355      H1375   0.990       .  S
O1355      H1384   0.990       .  S
O1356      C1357   1.282       .  A
C1357      C2992   1.466       .  S
O1358      H1377   0.990       .  S
O1358      H1381   0.990       .  S
O1359      H1373   0.990       .  S
O1359      H1380   0.990       .  S
O1360      C1364   1.285       .  A
O1361      C1364   1.285       .  A
O1362      H1372   0.990       .  S
O1363      H1376   0.990       .  S
C1364      C2883   1.469       .  S
Zr1387     O1388   2.442       .  S
Zr1387     O1389   2.435       .  S
Zr1387     O1390   2.469       .  S
Zr1387     O1393   2.427       .  S
Zr1387     O1395   2.369       .  S
Zr1387     O1396   2.397       .  S
Zr1387     O1397   2.405       .  S
Zr1387     O1398   2.402       .  S
O1388      H1444   0.991       .  S
O1388      H1452   0.990       .  S
O1389      C1409   1.284       .  A
O1390      C1411   1.288       .  A
O1391     Zr1401   2.437       .  S
O1391      C1410   1.286       .  A
O1392     Zr1400   2.385       .  S
O1392      C1411   1.276       .  A
O1393      C1410   1.283       .  A
O1394     Zr1402   2.434       .  S
O1394      C1409   1.283       .  A
O1395     Zr1400   2.380       .  S
O1395     Zr1402   2.373       .  S
O1396     Zr1401   2.402       .  S
O1396     Zr1402   2.380       .  S
O1396      H1431   0.966       .  S
O1397     Zr1400   2.390       .  S
O1397     Zr1417   2.402       .  S
O1397      H1434   0.967       .  S
O1398     Zr1401   2.393       .  S
O1398     Zr1417   2.377       .  S
Zr1399     O1424   2.443       .  S
Zr1399     O1418   2.440       .  S
Zr1399     O1426   2.425       .  S
Zr1399     O1414   2.450       .  S
Zr1399     O1405   2.406       .  S
Zr1399     O1406   2.404       .  S
Zr1399     O1407   2.379       .  S
Zr1399     O1408   2.383       .  S
Zr1400     O1419   2.438       .  S
Zr1400     O1412   2.434       .  S
Zr1400     O1413   2.380       .  S
Zr1400     O1406   2.385       .  S
Zr1400     O1407   2.384       .  S
Zr1401     O1403   2.435       .  S
Zr1401     O1425   2.436       .  S
Zr1401     O1427   2.466       .  S
Zr1401     O1405   2.384       .  S
Zr1401     O1408   2.386       .  S
Zr1402     O1428   2.434       .  S
Zr1402     O1429   2.435       .  S
Zr1402     O1404   2.436       .  S
Zr1402     O1405   2.401       .  S
Zr1402     O1406   2.400       .  S
O1403      H1440   0.990       .  S
O1404      H1435   0.990       .  S
O1404      H1449   0.990       .  S
O1406      H1432   0.967       .  S
O1407     Zr1417   2.372       .  S
O1408     Zr1417   2.381       .  S
O1408      H1433   0.968       .  S
C1409      C3827   1.474       .  S
C1410      C2899   1.463       .  S
C1411      C3779   1.469       .  S
O1412      H1448   0.990       .  S
O1413      C1415   1.275       .  A
O1414      C1415   1.287       .  A
C1415      C2915   1.457       .  S
O1416     Zr1417   2.440       .  S
O1416      H1445   0.990       .  S
Zr1417     O1420   2.437       .  S
Zr1417     O1421   2.440       .  S
Zr1417     O1422   2.417       .  S
O1418      C1423   1.284       .  A
O1419      H1436   0.990       .  S
O1419      H1451   0.990       .  S
O1420      H1437   0.990       .  S
O1421      H1441   0.990       .  S
O1421      H1450   0.990       .  S
O1422      C1423   1.281       .  A
C1423      C2851   1.463       .  S
O1424      H1443   0.990       .  S
O1424      H1447   0.990       .  S
O1425      H1439   0.990       .  S
O1425      H1446   0.990       .  S
O1426      C1430   1.283       .  A
O1427      C1430   1.290       .  A
O1428      H1438   0.990       .  S
O1429      H1442   0.990       .  S
C1430      C3040   1.480       .  S
Zr1453     O1454   2.442       .  S
Zr1453     O1455   2.432       .  S
Zr1453     O1456   2.456       .  S
Zr1453     O1459   2.440       .  S
Zr1453     O1461   2.376       .  S
Zr1453     O1462   2.391       .  S
Zr1453     O1463   2.410       .  S
Zr1453     O1464   2.391       .  S
O1454      H1510   0.991       .  S
O1454      H1518   0.990       .  S
O1455      C1475   1.283       .  A
O1456      C1477   1.286       .  A
O1457     Zr1467   2.450   1_556  S
O1457      C1476   1.288       .  A
O1458     Zr1466   2.381       .  S
O1458      C1477   1.274       .  A
O1459      C1476   1.285   1_554  A
O1460     Zr1468   2.440       .  S
O1460      C1475   1.284       .  A
O1461     Zr1466   2.387       .  S
O1461     Zr1468   2.370       .  S
O1462     Zr1467   2.391       .  S
O1462     Zr1468   2.385       .  S
O1462      H1497   0.967       .  S
O1463     Zr1466   2.391       .  S
O1463     Zr1483   2.404       .  S
O1463      H1500   0.965       .  S
O1464     Zr1467   2.384       .  S
O1464     Zr1483   2.377       .  S
Zr1465     O1490   2.442       .  S
Zr1465     O1484   2.470       .  S
Zr1465     O1492   2.425       .  S
Zr1465     O1480   2.473       .  S
Zr1465     O1471   2.422       .  S
Zr1465     O1472   2.410       .  S
Zr1465     O1473   2.378       .  S
Zr1465     O1474   2.388       .  S
Zr1466     O1485   2.440       .  S
Zr1466     O1478   2.436       .  S
Zr1466     O1479   2.392       .  S
Zr1466     O1472   2.380       .  S
Zr1466     O1473   2.387       .  S
Zr1467     O1469   2.438   1_554  S
Zr1467     O1491   2.437   1_554  S
Zr1467     O1493   2.448       .  S
Zr1467     O1471   2.389       .  S
Zr1467     O1474   2.384       .  S
Zr1468     O1494   2.436       .  S
Zr1468     O1495   2.435       .  S
Zr1468     O1470   2.439       .  S
Zr1468     O1471   2.404       .  S
Zr1468     O1472   2.405       .  S
O1469      H1506   0.990       .  S
O1470      H1501   0.990       .  S
O1470      H1515   0.990       .  S
O1472      H1498   0.966       .  S
O1473     Zr1483   2.370       .  S
O1474     Zr1483   2.383       .  S
O1474      H1499   0.963       .  S
C1475      C2800   1.472       .  S
C1476      C2816   1.471       .  S
C1477      C2832   1.460       .  S
O1478      H1514   0.990       .  S
O1479      C1481   1.277       .  A
O1480      C1481   1.291       .  A
C1481      C2864   1.477       .  S
O1482     Zr1483   2.435       .  S
O1482      H1511   0.990       .  S
Zr1483     O1486   2.437       .  S
Zr1483     O1487   2.439       .  S
Zr1483     O1488   2.423       .  S
O1484      C1489   1.290       .  A
O1485      H1502   0.990       .  S
O1485      H1517   0.990       .  S
O1486      H1503   0.990       .  S
O1487      H1507   0.990       .  S
O1487      H1516   0.990       .  S
O1488      C1489   1.282       .  A
C1489      C2931   1.475       .  S
O1490      H1509   0.990       .  S
O1490      H1513   0.990       .  S
O1491      H1505   0.990       .  S
O1491      H1512   0.989       .  S
O1492      C1496   1.283       .  A
O1493      C1496   1.287       .  A
O1494      H1504   0.990       .  S
O1495      H1508   0.990       .  S
C1496      C3731   1.471       .  S
Zr1519     O1520   2.440       .  S
Zr1519     O1521   2.427       .  S
Zr1519     O1522   2.452       .  S
Zr1519     O1525   2.437       .  S
Zr1519     O1527   2.382       .  S
Zr1519     O1528   2.392       .  S
Zr1519     O1529   2.408       .  S
Zr1519     O1530   2.395       .  S
O1520      H1576   0.991       .  S
O1520      H1584   0.990       .  S
O1521      C1541   1.281       .  A
O1522      C1543   1.285       .  A
O1523     Zr1533   2.443       .  S
O1523      C1542   1.286       .  A
O1524     Zr1532   2.387       .  S
O1524      C1543   1.275       .  A
O1525      C1542   1.285       .  A
O1526     Zr1534   2.465       .  S
O1526      C1541   1.289       .  A
O1527     Zr1532   2.384       .  S
O1527     Zr1534   2.373       .  S
O1528     Zr1533   2.394       .  S
O1528     Zr1534   2.383       .  S
O1528      H1563   0.968       .  S
O1529     Zr1532   2.393       .  S
O1529     Zr1549   2.405       .  S
O1529      H1566   0.966       .  S
O1530     Zr1533   2.388       .  S
O1530     Zr1549   2.381       .  S
Zr1531     O1556   2.438       .  S
Zr1531     O1550   2.460       .  S
Zr1531     O1558   2.434       .  S
Zr1531     O1546   2.472       .  S
Zr1531     O1537   2.421       .  S
Zr1531     O1538   2.419       .  S
Zr1531     O1539   2.376       .  S
Zr1531     O1540   2.384       .  S
Zr1532     O1551   2.438       .  S
Zr1532     O1544   2.435       .  S
Zr1532     O1545   2.382       .  S
Zr1532     O1538   2.383       .  S
Zr1532     O1539   2.391       .  S
Zr1533     O1535   2.434       .  S
Zr1533     O1557   2.436       .  S
Zr1533     O1559   2.451       .  S
Zr1533     O1537   2.391       .  S
Zr1533     O1540   2.378       .  S
Zr1534     O1560   2.436       .  S
Zr1534     O1561   2.436       .  S
Zr1534     O1536   2.438       .  S
Zr1534     O1537   2.409       .  S
Zr1534     O1538   2.417       .  S
O1535      H1572   0.990       .  S
O1536      H1567   0.990       .  S
O1536      H1581   0.989       .  S
O1538      H1564   0.967       .  S
O1539     Zr1549   2.369       .  S
O1540     Zr1549   2.381       .  S
O1540      H1565   0.964       .  S
C1541      C2771   1.485       .  S
C1542      C2819   1.468       .  S
C1543      C2787   1.460       .  S
O1544      H1580   0.990       .  S
O1545      C1547   1.274       .  A
O1546      C1547   1.291       .  A
C1547      C2944   1.469       .  S
O1548     Zr1549   2.439       .  S
O1548      H1577   0.990       .  S
Zr1549     O1552   2.438       .  S
Zr1549     O1553   2.439       .  S
Zr1549     O1554   2.425       .  S
O1550      C1555   1.288       .  A
O1551      H1568   0.990       .  S
O1551      H1583   0.990       .  S
O1552      H1569   0.990       .  S
O1553      H1573   0.990       .  S
O1553      H1582   0.990       .  S
O1554      C1555   1.282       .  A
C1555      C2848   1.470       .  S
O1556      H1575   0.990       .  S
O1556      H1579   0.990       .  S
O1557      H1571   0.990       .  S
O1557      H1578   0.990       .  S
O1558      C1562   1.285       .  A
O1559      C1562   1.288       .  A
O1560      H1570   0.990       .  S
O1561      H1574   0.990       .  S
C1562      C3008   1.477       .  S
Zr1585     O1586   2.441       .  S
Zr1585     O1587   2.428       .  S
Zr1585     O1588   2.470       .  S
Zr1585     O1591   2.433       .  S
Zr1585     O1593   2.375       .  S
Zr1585     O1594   2.400       .  S
Zr1585     O1595   2.404       .  S
Zr1585     O1596   2.398       .  S
O1586      H1642   0.991       .  S
O1586      H1650   0.990       .  S
O1587      C1607   1.282       .  A
O1588      C1609   1.289       .  A
O1589     Zr1599   2.440       .  S
O1589      C1608   1.285       .  A
O1590     Zr1598   2.391       .  S
O1590      C1609   1.275       .  A
O1591      C1608   1.284       .  A
O1592     Zr1600   2.437       .  S
O1592      C1607   1.283       .  A
O1593     Zr1598   2.383       .  S
O1593     Zr1600   2.377       .  S
O1594     Zr1599   2.403       .  S
O1594     Zr1600   2.383       .  S
O1594      H1629   0.966       .  S
O1595     Zr1598   2.393       .  S
O1595     Zr1615   2.402       .  S
O1595      H1632   0.965       .  S
O1596     Zr1599   2.393       .  S
O1596     Zr1615   2.378       .  S
Zr1597     O1622   2.440       .  S
Zr1597     O1616   2.447       .  S
Zr1597     O1624   2.425       .  S
Zr1597     O1612   2.463       .  S
Zr1597     O1603   2.416       .  S
Zr1597     O1604   2.408       .  S
Zr1597     O1605   2.372       .  S
Zr1597     O1606   2.384       .  S
Zr1598     O1617   2.439       .  S
Zr1598     O1610   2.433       .  S
Zr1598     O1611   2.387       .  S
Zr1598     O1604   2.386       .  S
Zr1598     O1605   2.383       .  S
Zr1599     O1601   2.437       .  S
Zr1599     O1623   2.439       .  S
Zr1599     O1625   2.456       .  S
Zr1599     O1603   2.392       .  S
Zr1599     O1606   2.387       .  S
Zr1600     O1626   2.435       .  S
Zr1600     O1627   2.435       .  S
Zr1600     O1602   2.436       .  S
Zr1600     O1603   2.407       .  S
Zr1600     O1604   2.403       .  S
O1601      H1638   0.990       .  S
O1602      H1633   0.990       .  S
O1602      H1647   0.989       .  S
O1604      H1630   0.966       .  S
O1605     Zr1615   2.369       .  S
O1606     Zr1615   2.379       .  S
O1606      H1631   0.966       .  S
C1607      C2707   1.471       .  S
C1608      C2720   1.464       .  S
C1609      C2752   1.470       .  S
O1610      H1646   0.990       .  S
O1611      C1613   1.276       .  A
O1612      C1613   1.290       .  A
C1613      C2691   1.466   1_554  S
O1614     Zr1615   2.438       .  S
O1614      H1643   0.991       .  S
Zr1615     O1618   2.437       .  S
Zr1615     O1619   2.441       .  S
Zr1615     O1620   2.416       .  S
O1616      C1621   1.286       .  A
O1617      H1634   0.990   1_554  S
O1617      H1649   0.990       .  S
O1618      H1635   0.990       .  S
O1619      H1639   0.990       .  S
O1619      H1648   0.990       .  S
O1620      C1621   1.281       .  A
C1621      C2739   1.464       .  S
O1622      H1641   0.990       .  S
O1622      H1645   0.990       .  S
O1623      H1637   0.990       .  S
O1623      H1644   0.990       .  S
O1624      C1628   1.283       .  A
O1625      C1628   1.289       .  A
O1626      H1636   0.990       .  S
O1627      H1640   0.990       .  S
C1628      C3136   1.475       .  S
Zr1651     O1652   2.440       .  S
Zr1651     O1653   2.419       .  S
Zr1651     O1654   2.462       .  S
Zr1651     O1657   2.433       .  S
Zr1651     O1659   2.371       .  S
Zr1651     O1660   2.394       .  S
Zr1651     O1661   2.401       .  S
Zr1651     O1662   2.398       .  S
O1652      H1708   0.991       .  S
O1652      H1716   0.990       .  S
O1653      C1673   1.281       .  A
O1654      C1675   1.288       .  A
O1655     Zr1665   2.432       .  S
O1655      C1674   1.285       .  A
O1656     Zr1664   2.384       .  S
O1656      C1675   1.274       .  A
O1657      C1674   1.284       .  A
O1658     Zr1666   2.447       .  S
O1658      C1673   1.284       .  A
O1659     Zr1664   2.376       .  S
O1659     Zr1666   2.367       .  S
O1660     Zr1665   2.398       .  S
O1660     Zr1666   2.380       .  S
O1660      H1695   0.966       .  S
O1661     Zr1664   2.392       .  S
O1661     Zr1681   2.399       .  S
O1661      H1698   0.965       .  S
O1662     Zr1665   2.392       .  S
O1662     Zr1681   2.381       .  S
Zr1663     O1688   2.440       .  S
Zr1663     O1682   2.446       .  S
Zr1663     O1690   2.433       .  S
Zr1663     O1678   2.466       .  S
Zr1663     O1669   2.411       .  S
Zr1663     O1670   2.412       .  S
Zr1663     O1671   2.373       .  S
Zr1663     O1672   2.387       .  S
Zr1664     O1683   2.439       .  S
Zr1664     O1676   2.433       .  S
Zr1664     O1677   2.379       .  S
Zr1664     O1670   2.383       .  S
Zr1664     O1671   2.380       .  S
Zr1665     O1667   2.436       .  S
Zr1665     O1689   2.437       .  S
Zr1665     O1691   2.443       .  S
Zr1665     O1669   2.389       .  S
Zr1665     O1672   2.390       .  S
Zr1666     O1692   2.435       .  S
Zr1666     O1693   2.435       .  S
Zr1666     O1668   2.437       .  S
Zr1666     O1669   2.406       .  S
Zr1666     O1670   2.409       .  S
O1667      H1704   0.990       .  S
O1668      H1699   0.991       .  S
O1668      H1713   0.990       .  S
O1670      H1696   0.966       .  S
O1671     Zr1681   2.367       .  S
O1672     Zr1681   2.381       .  S
O1672      H1697   0.966       .  S
C1673      C2643   1.472       .  S
C1674      C2723   1.466       .  S
C1675      C2659   1.465       .  S
O1676      H1712   0.990       .  S
O1677      C1679   1.274       .  A
O1678      C1679   1.291       .  A
C1679      C2624   1.465       .  S
O1680     Zr1681   2.440       .  S
O1680      H1709   0.991       .  S
Zr1681     O1684   2.437       .  S
Zr1681     O1685   2.440       .  S
Zr1681     O1686   2.421       .  S
O1682      C1687   1.285       .  A
O1683      H1700   0.990       .  S
O1683      H1715   0.990       .  S
O1684      H1701   0.990       .  S
O1685      H1705   0.990       .  S
O1685      H1714   0.990       .  S
O1686      C1687   1.282       .  A
C1687      C2672   1.468       .  S
O1688      H1707   0.990       .  S
O1688      H1711   0.990       .  S
O1689      H1703   0.990       .  S
O1689      H1710   0.990       .  S
O1690      C1694   1.284       .  A
O1691      C1694   1.286       .  A
O1692      H1702   0.990       .  S
O1693      H1706   0.990       .  S
C1694      C4032   1.471       .  S
Zr1717     O1718   2.441       .  S
Zr1717     O1719   2.439       .  S
Zr1717     O1720   2.463       .  S
Zr1717     O1723   2.444       .  S
Zr1717     O1725   2.376       .  S
Zr1717     O1726   2.396       .  S
Zr1717     O1727   2.411       .  S
Zr1717     O1728   2.396       .  S
O1718      H1774   0.991       .  S
O1718      H1782   0.990       .  S
O1719      C1739   1.283       .  A
O1720      C1741   1.288       .  A
O1721     Zr1731   2.439   1_556  S
O1721      C1740   1.286       .  A
O1722     Zr1730   2.389       .  S
O1722      C1741   1.275       .  A
O1723      C1740   1.285   1_554  A
O1724     Zr1732   2.437       .  S
O1724      C1739   1.283       .  A
O1725     Zr1730   2.382       .  S
O1725     Zr1732   2.373       .  S
O1726     Zr1731   2.396       .  S
O1726     Zr1732   2.387       .  S
O1726      H1761   0.966       .  S
O1727     Zr1730   2.395       .  S
O1727     Zr1747   2.407       .  S
O1727      H1764   0.965       .  S
O1728     Zr1731   2.387       .  S
O1728     Zr1747   2.380       .  S
Zr1729     O1754   2.446   1_545  S
Zr1729     O1748   2.462   1_545  S
Zr1729     O1756   2.425   1_545  S
Zr1729     O1744   2.466       .  S
Zr1729     O1735   2.420       .  S
Zr1729     O1736   2.417       .  S
Zr1729     O1737   2.371       .  S
Zr1729     O1738   2.388       .  S
Zr1730     O1749   2.438       .  S
Zr1730     O1742   2.437       .  S
Zr1730     O1743   2.380       .  S
Zr1730     O1736   2.387       .  S
Zr1730     O1737   2.388       .  S
Zr1731     O1733   2.437   1_554  S
Zr1731     O1755   2.437   1_554  S
Zr1731     O1757   2.447       .  S
Zr1731     O1735   2.390       .  S
Zr1731     O1738   2.382       .  S
Zr1732     O1758   2.437       .  S
Zr1732     O1759   2.434       .  S
Zr1732     O1734   2.436       .  S
Zr1732     O1735   2.398       .  S
Zr1732     O1736   2.409       .  S
O1733      H1770   0.990       .  S
O1734      H1765   0.990       .  S
O1734      H1779   0.990       .  S
O1736      H1762   0.966       .  S
O1737     Zr1747   2.369       .  S
O1738     Zr1747   2.381       .  S
O1738      H1763   0.965       .  S
C1739      C3747   1.477       .  S
C1740      C2608   1.469       .  S
C1741      C4096   1.464       .  S
O1742      H1778   0.990       .  S
O1743      C1745   1.275       .  A
O1744      C1745   1.289       .  A
C1745      C2595   1.469       .  S
O1746     Zr1747   2.438       .  S
O1746      H1775   0.991       .  S
Zr1747     O1750   2.438       .  S
Zr1747     O1751   2.439       .  S
Zr1747     O1752   2.422       .  S
O1748      C1753   1.288       .  A
O1749      H1766   0.990       .  S
O1749      H1781   0.990       .  S
O1750      H1767   0.990       .  S
O1751      H1771   0.990       .  S
O1751      H1780   0.990       .  S
O1752      C1753   1.282   1_545  A
C1753      C2736   1.470       .  S
O1754      H1773   0.990       .  S
O1754      H1777   0.990       .  S
O1755      H1769   0.990       .  S
O1755      H1776   0.990       .  S
O1756      C1760   1.283       .  A
O1757      C1760   1.287   1_545  A
O1758      H1768   0.990       .  S
O1759      H1772   0.990       .  S
C1760      C3168   1.470       .  S
Zr1783     O1784   2.443       .  S
Zr1783     O1785   2.424       .  S
Zr1783     O1786   2.458       .  S
Zr1783     O1789   2.437       .  S
Zr1783     O1791   2.378       .  S
Zr1783     O1792   2.389       .  S
Zr1783     O1793   2.404       .  S
Zr1783     O1794   2.402       .  S
O1784      H1840   0.991       .  S
O1784      H1848   0.990       .  S
O1785      C1805   1.282       .  A
O1786      C1807   1.287       .  A
O1787     Zr1797   2.439       .  S
O1787      C1806   1.285       .  A
O1788     Zr1796   2.388       .  S
O1788      C1807   1.275       .  A
O1789      C1806   1.285       .  A
O1790     Zr1798   2.439       .  S
O1790      C1805   1.283       .  A
O1791     Zr1796   2.386       .  S
O1791     Zr1798   2.375       .  S
O1792     Zr1797   2.394       .  S
O1792     Zr1798   2.382       .  S
O1792      H1827   0.966       .  S
O1793     Zr1796   2.394       .  S
O1793     Zr1813   2.397       .  S
O1793      H1830   0.965       .  S
O1794     Zr1797   2.392       .  S
O1794     Zr1813   2.386       .  S
Zr1795     O1820   2.439       .  S
Zr1795     O1814   2.444       .  S
Zr1795     O1822   2.427       .  S
Zr1795     O1810   2.455       .  S
Zr1795     O1801   2.412       .  S
Zr1795     O1802   2.410       .  S
Zr1795     O1803   2.374       .  S
Zr1795     O1804   2.384       .  S
Zr1796     O1815   2.437       .  S
Zr1796     O1808   2.436       .  S
Zr1796     O1809   2.401       .  S
Zr1796     O1802   2.387       .  S
Zr1796     O1803   2.381       .  S
Zr1797     O1799   2.435       .  S
Zr1797     O1821   2.438       .  S
Zr1797     O1823   2.447       .  S
Zr1797     O1801   2.389       .  S
Zr1797     O1804   2.388       .  S
Zr1798     O1824   2.436       .  S
Zr1798     O1825   2.436       .  S
Zr1798     O1800   2.437       .  S
Zr1798     O1801   2.401       .  S
Zr1798     O1802   2.407       .  S
O1799      H1836   0.990       .  S
O1800      H1831   0.990       .  S
O1800      H1845   0.990       .  S
O1802      H1828   0.966       .  S
O1803     Zr1813   2.368       .  S
O1804     Zr1813   2.376       .  S
O1804      H1829   0.965       .  S
C1805      C3872   1.470       .  S
C1806      C2611   1.470       .  S
C1807      C3984   1.463       .  S
O1808      H1844   0.990       .  S
O1809      C1811   1.278       .  A
O1810      C1811   1.289       .  A
C1811      C2627   1.468       .  S
O1812     Zr1813   2.438       .  S
O1812      H1841   0.990       .  S
Zr1813     O1816   2.437       .  S
Zr1813     O1817   2.440       .  S
Zr1813     O1818   2.417       .  S
O1814      C1819   1.285       .  A
O1815      H1832   0.990       .  S
O1815      H1847   0.990       .  S
O1816      H1833   0.990       .  S
O1817      H1837   0.990       .  S
O1817      H1846   0.990       .  S
O1818      C1819   1.281       .  A
C1819      C2579   1.466       .  S
O1820      H1839   0.990       .  S
O1820      H1843   0.990       .  S
O1821      H1835   0.990       .  S
O1821      H1842   0.990       .  S
O1822      C1826   1.284       .  A
O1823      C1826   1.287       .  A
O1824      H1834   0.990       .  S
O1825      H1838   0.990       .  S
C1826      C2560   1.471       .  S
Zr1849     O1850   2.441       .  S
Zr1849     O1851   2.417       .  S
Zr1849     O1852   2.457       .  S
Zr1849     O1855   2.434       .  S
Zr1849     O1857   2.376       .  S
Zr1849     O1858   2.395       .  S
Zr1849     O1859   2.407       .  S
Zr1849     O1860   2.390       .  S
O1850      H1906   0.991       .  S
O1850      H1914   0.990       .  S
O1851      C1871   1.279       .  A
O1852      C1873   1.287       .  A
O1853     Zr1863   2.438       .  S
O1853      C1872   1.285       .  A
O1854     Zr1862   2.390       .  S
O1854      C1873   1.275       .  A
O1855      C1872   1.284       .  A
O1856     Zr1864   2.444       .  S
O1856      C1871   1.285       .  A
O1857     Zr1862   2.383       .  S
O1857     Zr1864   2.369       .  S
O1858     Zr1863   2.392       .  S
O1858     Zr1864   2.381       .  S
O1858      H1893   0.966       .  S
O1859     Zr1862   2.393       .  S
O1859     Zr1879   2.405       .  S
O1859      H1896   0.965       .  S
O1860     Zr1863   2.389       .  S
O1860     Zr1879   2.377       .  S
Zr1861     O1886   2.442   1_565  S
Zr1861     O1880   2.465   1_565  S
Zr1861     O1888   2.422   1_565  S
Zr1861     O1876   2.460       .  S
Zr1861     O1867   2.415       .  S
Zr1861     O1868   2.418       .  S
Zr1861     O1869   2.375       .  S
Zr1861     O1870   2.386       .  S
Zr1862     O1881   2.437       .  S
Zr1862     O1874   2.435       .  S
Zr1862     O1875   2.392       .  S
Zr1862     O1868   2.386       .  S
Zr1862     O1869   2.383       .  S
Zr1863     O1865   2.436       .  S
Zr1863     O1887   2.437       .  S
Zr1863     O1889   2.446       .  S
Zr1863     O1867   2.388       .  S
Zr1863     O1870   2.377       .  S
Zr1864     O1890   2.437       .  S
Zr1864     O1891   2.435       .  S
Zr1864     O1866   2.438       .  S
Zr1864     O1867   2.397       .  S
Zr1864     O1868   2.414       .  S
O1865      H1902   0.990       .  S
O1866      H1897   0.990       .  S
O1866      H1911   0.990       .  S
O1868      H1894   0.967       .  S
O1869     Zr1879   2.368       .  S
O1870     Zr1879   2.383       .  S
O1870      H1895   0.967       .  S
C1871      C3248   1.467       .  S
C1872      C2544   1.463       .  S
C1873      C3155   1.463       .  S
O1874      H1910   0.989       .  S
O1875      C1877   1.277       .  A
O1876      C1877   1.288       .  A
C1877      C2592   1.471       .  S
O1878     Zr1879   2.435       .  S
O1878      H1907   0.990       .  S
Zr1879     O1882   2.437       .  S
Zr1879     O1883   2.438       .  S
Zr1879     O1884   2.408       .  S
O1880      C1885   1.288       .  A
O1881      H1898   0.990       .  S
O1881      H1913   0.990       .  S
O1882      H1899   0.990       .  S
O1883      H1903   0.990       .  S
O1883      H1912   0.990       .  S
O1884      C1885   1.279   1_565  A
C1885      C2675   1.468       .  S
O1886      H1905   0.990       .  S
O1886      H1909   0.990       .  S
O1887      H1901   0.990       .  S
O1887      H1908   0.990       .  S
O1888      C1892   1.283       .  A
O1889      C1892   1.286   1_565  A
O1890      H1900   0.990       .  S
O1891      H1904   0.990       .  S
C1892      C3952   1.469       .  S
Zr1915     O1916   2.440       .  S
Zr1915     O1917   2.417       .  S
Zr1915     O1918   2.455       .  S
Zr1915     O1921   2.435       .  S
Zr1915     O1923   2.378       .  S
Zr1915     O1924   2.393       .  S
Zr1915     O1925   2.403       .  S
Zr1915     O1926   2.391       .  S
O1916      H1972   0.991       .  S
O1916      H1980   0.990       .  S
O1917      C1937   1.280       .  A
O1918      C1939   1.285       .  A
O1919     Zr1929   2.436       .  S
O1919      C1938   1.285       .  A
O1920     Zr1928   2.387       .  S
O1920      C1939   1.276       .  A
O1921      C1938   1.284       .  A
O1922     Zr1930   2.459       .  S
O1922      C1937   1.287       .  A
O1923     Zr1928   2.388       .  S
O1923     Zr1930   2.373       .  S
O1924     Zr1929   2.394       .  S
O1924     Zr1930   2.380       .  S
O1924      H1959   0.967       .  S
O1925     Zr1928   2.389       .  S
O1925     Zr1945   2.397       .  S
O1925      H1962   0.965       .  S
O1926     Zr1929   2.392       .  S
O1926     Zr1945   2.380       .  S
Zr1927     O1952   2.437       .  S
Zr1927     O1946   2.469       .  S
Zr1927     O1954   2.427       .  S
Zr1927     O1942   2.466       .  S
Zr1927     O1933   2.421       .  S
Zr1927     O1934   2.413       .  S
Zr1927     O1935   2.374       .  S
Zr1927     O1936   2.388       .  S
Zr1928     O1947   2.436       .  S
Zr1928     O1940   2.436       .  S
Zr1928     O1941   2.392       .  S
Zr1928     O1934   2.386       .  S
Zr1928     O1935   2.386       .  S
Zr1929     O1931   2.436       .  S
Zr1929     O1953   2.437       .  S
Zr1929     O1955   2.455       .  S
Zr1929     O1933   2.391       .  S
Zr1929     O1936   2.379       .  S
Zr1930     O1956   2.436       .  S
Zr1930     O1957   2.435       .  S
Zr1930     O1932   2.438       .  S
Zr1930     O1933   2.409       .  S
Zr1930     O1934   2.414       .  S
O1931      H1968   0.990       .  S
O1932      H1963   0.990       .  S
O1932      H1977   0.990       .  S
O1934      H1960   0.967       .  S
O1935     Zr1945   2.367       .  S
O1936     Zr1945   2.386       .  S
O1936      H1961   0.965       .  S
C1937      C3059   1.477       .  S
C1938      C2547   1.465       .  S
C1939      C3219   1.464       .  S
O1940      H1976   0.990       .  S
O1941      C1943   1.277       .  A
O1942      C1943   1.291       .  A
C1943      C2688   1.470       .  S
O1944     Zr1945   2.436       .  S
O1944      H1973   0.990       .  S
Zr1945     O1948   2.435       .  S
Zr1945     O1949   2.439       .  S
Zr1945     O1950   2.406       .  S
O1946      C1951   1.289       .  A
O1947      H1964   0.990       .  S
O1947      H1979   0.990       .  S
O1948      H1965   0.990       .  S
O1949      H1969   0.990       .  S
O1949      H1978   0.990       .  S
O1950      C1951   1.279       .  A
C1951      C2576   1.469       .  S
O1952      H1971   0.990       .  S
O1952      H1975   0.990       .  S
O1953      H1967   0.990       .  S
O1953      H1974   0.990       .  S
O1954      C1958   1.283       .  A
O1955      C1958   1.288       .  A
O1956      H1966   0.990       .  S
O1957      H1970   0.990       .  S
C1958      C2531   1.477       .  S
Zr1981     O1982   2.442       .  S
Zr1981     O1983   2.436       .  S
Zr1981     O1984   2.449       .  S
Zr1981     O1987   2.456       .  S
Zr1981     O1989   2.384       .  S
Zr1981     O1990   2.387       .  S
Zr1981     O1991   2.408       .  S
Zr1981     O1992   2.395       .  S
O1982      H2038   0.991       .  S
O1982      H2046   0.990       .  S
O1983      C2003   1.284       .  A
O1984      C2005   1.285   1_556  A
O1985     Zr1995   2.396       .  S
O1985      C2004   1.277       .  A
O1986     Zr1994   2.430   1_554  S
O1986      C2005   1.284       .  A
O1987      C2004   1.289       .  A
O1988     Zr1996   2.416       .  S
O1988      C2003   1.280       .  A
O1989     Zr1994   2.395       .  S
O1989     Zr1996   2.379       .  S
O1990     Zr1995   2.389       .  S
O1990     Zr1996   2.376       .  S
O1990      H2025   0.966       .  S
O1991     Zr1994   2.409       .  S
O1991     Zr2011   2.381       .  S
O1991      H2028   0.965       .  S
O1992     Zr1995   2.386       .  S
O1992     Zr2011   2.380       .  S
Zr1993     O2018   2.444   1_565  S
Zr1993     O2012   2.447   1_565  S
Zr1993     O2020   2.457       .  S
Zr1993     O2008   2.434   1_565  S
Zr1993     O1999   2.406       .  S
Zr1993     O2000   2.410       .  S
Zr1993     O2001   2.379       .  S
Zr1993     O2002   2.381       .  S
Zr1994     O2013   2.436   1_556  S
Zr1994     O2006   2.438   1_556  S
Zr1994     O2007   2.445   1_565  S
Zr1994     O2000   2.399       .  S
Zr1994     O2001   2.389       .  S
Zr1995     O1997   2.437       .  S
Zr1995     O2019   2.439       .  S
Zr1995     O2021   2.402       .  S
Zr1995     O1999   2.384       .  S
Zr1995     O2002   2.383       .  S
Zr1996     O2022   2.434       .  S
Zr1996     O2023   2.435       .  S
Zr1996     O1998   2.438       .  S
Zr1996     O1999   2.397       .  S
Zr1996     O2000   2.392       .  S
O1997      H2034   0.990       .  S
O1998      H2029   0.990       .  S
O1998      H2043   0.990       .  S
O2000      H2026   0.965       .  S
O2001     Zr2011   2.377       .  S
O2002     Zr2011   2.368       .  S
O2002      H2027   0.967       .  S
C2003      C3408   1.466       .  S
C2004      C3664   1.464       .  S
C2005      C2515   1.468       .  S
O2006      H2042   0.990       .  S
O2007      C2009   1.285       .  A
O2008      C2009   1.285       .  A
C2009      C2803   1.470       .  S
O2010     Zr2011   2.435       .  S
O2010      H2039   0.990       .  S
Zr2011     O2014   2.435       .  S
Zr2011     O2015   2.438       .  S
Zr2011     O2016   2.406       .  S
O2012      C2017   1.285       .  A
O2013      H2030   0.990       .  S
O2013      H2045   0.990       .  S
O2014      H2031   0.990       .  S
O2015      H2035   0.990       .  S
O2015      H2044   0.990       .  S
O2016      C2017   1.278   1_565  A
C2017      C2496   1.461       .  S
O2018      H2037   0.990       .  S
O2018      H2041   0.990       .  S
O2019      H2033   0.990       .  S
O2019      H2040   0.990       .  S
O2020      C2024   1.289       .  A
O2021      C2024   1.279       .  A
O2022      H2032   0.990       .  S
O2023      H2036   0.990       .  S
C2024      C2480   1.467       .  S
Zr2047     O2048   2.443       .  S
Zr2047     O2049   2.446       .  S
Zr2047     O2050   2.453       .  S
Zr2047     O2053   2.454       .  S
Zr2047     O2055   2.390       .  S
Zr2047     O2056   2.387       .  S
Zr2047     O2057   2.414       .  S
Zr2047     O2058   2.403       .  S
O2048      H2104   0.991       .  S
O2048      H2112   0.990       .  S
O2049      C2069   1.286       .  A
O2050      C2071   1.285       .  A
O2051     Zr2061   2.393       .  S
O2051      C2070   1.278       .  A
O2052     Zr2060   2.436       .  S
O2052      C2071   1.285       .  A
O2053      C2070   1.287       .  A
O2054     Zr2062   2.435       .  S
O2054      C2069   1.283       .  A
O2055     Zr2060   2.396       .  S
O2055     Zr2062   2.386       .  S
O2056     Zr2061   2.383       .  S
O2056     Zr2062   2.375       .  S
O2056      H2091   0.965       .  S
O2057     Zr2060   2.411       .  S
O2057     Zr2077   2.383       .  S
O2057      H2094   0.964       .  S
O2058     Zr2061   2.383       .  S
O2058     Zr2077   2.388       .  S
Zr2059     O2084   2.441       .  S
Zr2059     O2078   2.462       .  S
Zr2059     O2086   2.465       .  S
Zr2059     O2074   2.433       .  S
Zr2059     O2065   2.412       .  S
Zr2059     O2066   2.421       .  S
Zr2059     O2067   2.383       .  S
Zr2059     O2068   2.381       .  S
Zr2060     O2079   2.437       .  S
Zr2060     O2072   2.436       .  S
Zr2060     O2073   2.447       .  S
Zr2060     O2066   2.399       .  S
Zr2060     O2067   2.387       .  S
Zr2061     O2063   2.436       .  S
Zr2061     O2085   2.435       .  S
Zr2061     O2087   2.393       .  S
Zr2061     O2065   2.384       .  S
Zr2061     O2068   2.389       .  S
Zr2062     O2088   2.436       .  S
Zr2062     O2089   2.438       .  S
Zr2062     O2064   2.438       .  S
Zr2062     O2065   2.403       .  S
Zr2062     O2066   2.392       .  S
O2063      H2100   0.990       .  S
O2064      H2095   0.990       .  S
O2064      H2109   0.990       .  S
O2066      H2092   0.965       .  S
O2067     Zr2077   2.373       .  S
O2068     Zr2077   2.369       .  S
O2068      H2093   0.966       .  S
C2069      C3363   1.478       .  S
C2070      C3571   1.468       .  S
C2071      C2512   1.469       .  S
O2072      H2108   0.990       .  S
O2073      C2075   1.286       .  A
O2074      C2075   1.284       .  A
C2075      C2704   1.469       .  S
O2076     Zr2077   2.436       .  S
O2076      H2105   0.990       .  S
Zr2077     O2080   2.434       .  S
Zr2077     O2081   2.439       .  S
Zr2077     O2082   2.408       .  S
O2078      C2083   1.287       .  A
O2079      H2096   0.990       .  S
O2079      H2111   0.990       .  S
O2080      H2097   0.990       .  S
O2081      H2101   0.990       .  S
O2081      H2110   0.990       .  S
O2082      C2083   1.279       .  A
C2083      C2464   1.471       .  S
O2084      H2103   0.990       .  S
O2084      H2107   0.990       .  S
O2085      H2099   0.990       .  S
O2085      H2106   0.990       .  S
O2086      C2090   1.290       .  A
O2087      C2090   1.278       .  A
O2088      H2098   0.990       .  S
O2089      H2102   0.990       .  S
C2090      C2448   1.473       .  S
Zr2113     O2114   2.440       .  S
Zr2113     O2115   2.448       .  S
Zr2113     O2116   2.438       .  S
Zr2113     O2119   2.458       .  S
Zr2113     O2121   2.389       .  S
Zr2113     O2122   2.380       .  S
Zr2113     O2123   2.415       .  S
Zr2113     O2124   2.403       .  S
O2114      H2170   0.991       .  S
O2114      H2178   0.990       .  S
O2115      C2135   1.285       .  A
O2116      C2137   1.284       .  A
O2117     Zr2127   2.395       .  S
O2117      C2136   1.277       .  A
O2118     Zr2126   2.445       .  S
O2118      C2137   1.286       .  A
O2119      C2136   1.288       .  A
O2120     Zr2128   2.431       .  S
O2120      C2135   1.284       .  A
O2121     Zr2126   2.400       .  S
O2121     Zr2128   2.382       .  S
O2122     Zr2127   2.383       .  S
O2122     Zr2128   2.377       .  S
O2122      H2157   0.965       .  S
O2123     Zr2126   2.407       .  S
O2123     Zr2143   2.384       .  S
O2123      H2160   0.965       .  S
O2124     Zr2127   2.381       .  S
O2124     Zr2143   2.394       .  S
Zr2125     O2150   2.439       .  S
Zr2125     O2144   2.444       .  S
Zr2125     O2152   2.472       .  S
Zr2125     O2140   2.438       .  S
Zr2125     O2131   2.406       .  S
Zr2125     O2132   2.413       .  S
Zr2125     O2133   2.383       .  S
Zr2125     O2134   2.379       .  S
Zr2126     O2145   2.439       .  S
Zr2126     O2138   2.435       .  S
Zr2126     O2139   2.448       .  S
Zr2126     O2132   2.404       .  S
Zr2126     O2133   2.391       .  S
Zr2127     O2129   2.436       .  S
Zr2127     O2151   2.437       .  S
Zr2127     O2153   2.381       .  S
Zr2127     O2131   2.384       .  S
Zr2127     O2134   2.389       .  S
Zr2128     O2154   2.435       .  S
Zr2128     O2155   2.436       .  S
Zr2128     O2130   2.439       .  S
Zr2128     O2131   2.400       .  S
Zr2128     O2132   2.394       .  S
O2129      H2166   0.990       .  S
O2130      H2161   0.990       .  S
O2130      H2175   0.990       .  S
O2132      H2158   0.966       .  S
O2133     Zr2143   2.372       .  S
O2134     Zr2143   2.368       .  S
O2134      H2159   0.965       .  S
C2135      C2528   1.478       .  S
C2136      C2656   1.468       .  S
C2137      C2432   1.466       .  S
O2138      H2174   0.990       .  S
O2139      C2141   1.287       .  A
O2140      C2141   1.286       .  A
C2141      C3616   1.472       .  S
O2142     Zr2143   2.434       .  S
O2142      H2171   0.990       .  S
Zr2143     O2146   2.437       .  S
Zr2143     O2147   2.438       .  S
Zr2143     O2148   2.417       .  S
O2144      C2149   1.285       .  A
O2145      H2162   0.990       .  S
O2145      H2177   0.990       .  S
O2146      H2163   0.990       .  S
O2147      H2167   0.990       .  S
O2147      H2176   0.990       .  S
O2148      C2149   1.280       .  A
C2149      C2416   1.464       .  S
O2150      H2169   0.990       .  S
O2150      H2173   0.990       .  S
O2151      H2165   0.990       .  S
O2151      H2172   0.990       .  S
O2152      C2156   1.291       .  A
O2153      C2156   1.275       .  A
O2154      H2164   0.989       .  S
O2155      H2168   0.990       .  S
C2156      C2451   1.472       .  S
Zr2179     O2180   2.444       .  S
Zr2179     O2181   2.435       .  S
Zr2179     O2182   2.440       .  S
Zr2179     O2185   2.464       .  S
Zr2179     O2187   2.392       .  S
Zr2179     O2188   2.384       .  S
Zr2179     O2189   2.414       .  S
Zr2179     O2190   2.402       .  S
O2180      H2236   0.991       .  S
O2180      H2244   0.990       .  S
O2181      C2201   1.283       .  A
O2182      C2203   1.283       .  A
O2183     Zr2193   2.389       .  S
O2183      C2202   1.276       .  A
O2184     Zr2192   2.449       .  S
O2184      C2203   1.289       .  A
O2185      C2202   1.290       .  A
O2186     Zr2194   2.440       .  S
O2186      C2201   1.285       .  A
O2187     Zr2192   2.396       .  S
O2187     Zr2194   2.379       .  S
O2188     Zr2193   2.386       .  S
O2188     Zr2194   2.373       .  S
O2188      H2223   0.966       .  S
O2189     Zr2192   2.416       .  S
O2189     Zr2209   2.376       .  S
O2189      H2226   0.964       .  S
O2190     Zr2193   2.381       .  S
O2190     Zr2209   2.388       .  S
Zr2191     O2216   2.439       .  S
Zr2191     O2210   2.464       .  S
Zr2191     O2218   2.477       .  S
Zr2191     O2206   2.452       .  S
Zr2191     O2197   2.413       .  S
Zr2191     O2198   2.420       .  S
Zr2191     O2199   2.383       .  S
Zr2191     O2200   2.388       .  S
Zr2192     O2211   2.437       .  S
Zr2192     O2204   2.435       .  S
Zr2192     O2205   2.462       .  S
Zr2192     O2198   2.402       .  S
Zr2192     O2199   2.394       .  S
Zr2193     O2195   2.437       .  S
Zr2193     O2217   2.438       .  S
Zr2193     O2219   2.377       .  S
Zr2193     O2197   2.386       .  S
Zr2193     O2200   2.394       .  S
Zr2194     O2220   2.436       .  S
Zr2194     O2221   2.433       .  S
Zr2194     O2196   2.437       .  S
Zr2194     O2197   2.403       .  S
Zr2194     O2198   2.397       .  S
O2195      H2232   0.990   1_556  S
O2196      H2227   0.990       .  S
O2196      H2241   0.990       .  S
O2198      H2224   0.966       .  S
O2199     Zr2209   2.379       .  S
O2200     Zr2209   2.374       .  S
O2200      H2225   0.966       .  S
C2201      C2563   1.476       .  S
C2202      C2755   1.468       .  S
C2203      C2435   1.471       .  S
O2204      H2240   0.990       .  S
O2205      C2207   1.289       .  A
O2206      C2207   1.287       .  A
C2207      C2768   1.486       .  S
O2208     Zr2209   2.436       .  S
O2208      H2237   0.990       .  S
Zr2209     O2212   2.437       .  S
Zr2209     O2213   2.438       .  S
Zr2209     O2214   2.396       .  S
O2210      C2215   1.287       .  A
O2211      H2228   0.990       .  S
O2211      H2243   0.990       .  S
O2212      H2229   0.991       .  S
O2213      H2233   0.990       .  S
O2213      H2242   0.989       .  S
O2214      C2215   1.277       .  A
C2215      C2499   1.471       .  S
O2216      H2235   0.990       .  S
O2216      H2239   0.991       .  S
O2217      H2231   0.990       .  S
O2217      H2238   0.990   1_556  S
O2218      C2222   1.292       .  A
O2219      C2222   1.273       .  A
O2220      H2230   0.990       .  S
O2221      H2234   0.990       .  S
C2222      C2403   1.470   1_556  S
Zr2245     O2246   2.441       .  S
Zr2245     O2247   2.432       .  S
Zr2245     O2248   2.451       .  S
Zr2245     O2251   2.460       .  S
Zr2245     O2253   2.390       .  S
Zr2245     O2254   2.382       .  S
Zr2245     O2255   2.412       .  S
Zr2245     O2256   2.401       .  S
O2246      H2302   0.990       .  S
O2246      H2310   0.990       .  S
O2247      C2267   1.283       .  A
O2248      C2269   1.286       .  A
O2249     Zr2259   2.380       .  S
O2249      C2268   1.274       .  A
O2250     Zr2258   2.446       .  S
O2250      C2269   1.287       .  A
O2251      C2268   1.289       .  A
O2252     Zr2260   2.423       .  S
O2252      C2267   1.280       .  A
O2253     Zr2258   2.396       .  S
O2253     Zr2260   2.385       .  S
O2254     Zr2259   2.385       .  S
O2254     Zr2260   2.371       .  S
O2254      H2289   0.965       .  S
O2255     Zr2258   2.410       .  S
O2255     Zr2275   2.375       .  S
O2255      H2292   0.964       .  S
O2256     Zr2259   2.381       .  S
O2256     Zr2275   2.391       .  S
Zr2257     O2282   2.440   1_545  S
Zr2257     O2276   2.463   1_545  S
Zr2257     O2284   2.469       .  S
Zr2257     O2272   2.438   1_545  S
Zr2257     O2263   2.405       .  S
Zr2257     O2264   2.419       .  S
Zr2257     O2265   2.383       .  S
Zr2257     O2266   2.383       .  S
Zr2258     O2277   2.436       .  S
Zr2258     O2270   2.434       .  S
Zr2258     O2271   2.446       .  S
Zr2258     O2264   2.405       .  S
Zr2258     O2265   2.390       .  S
Zr2259     O2261   2.437       .  S
Zr2259     O2283   2.440       .  S
Zr2259     O2285   2.382       .  S
Zr2259     O2263   2.377       .  S
Zr2259     O2266   2.389       .  S
Zr2260     O2286   2.440       .  S
Zr2260     O2287   2.435       .  S
Zr2260     O2262   2.434       .  S
Zr2260     O2263   2.394       .  S
Zr2260     O2264   2.396       .  S
O2261      H2298   0.990       .  S
O2262      H2293   0.990       .  S
O2262      H2307   0.990       .  S
O2264      H2290   0.965       .  S
O2265     Zr2275   2.373       .  S
O2266     Zr2275   2.375       .  S
O2266      H2291   0.966       .  S
C2267      C2880   1.468       .  S
C2268      C2784   1.461       .  S
C2269      C2384   1.472       .  S
O2270      H2306   0.990       .  S
O2271      C2273   1.287   1_545  A
O2272      C2273   1.285       .  A
C2273      C3539   1.472       .  S
O2274     Zr2275   2.434       .  S
O2274      H2303   0.990       .  S
Zr2275     O2278   2.436       .  S
Zr2275     O2279   2.439       .  S
Zr2275     O2280   2.407       .  S
O2276      C2281   1.288       .  A
O2277      H2294   0.990       .  S
O2277      H2309   0.990       .  S
O2278      H2295   0.990       .  S
O2279      H2299   0.990       .  S
O2279      H2308   0.990       .  S
O2280      C2281   1.279   1_545  A
C2281      C2419   1.471       .  S
O2282      H2301   0.991       .  S
O2282      H2305   0.990       .  S
O2283      H2297   0.990       .  S
O2283      H2304   0.990       .  S
O2284      C2288   1.292       .  A
O2285      C2288   1.275       .  A
O2286      H2296   0.990       .  S
O2287      H2300   0.990       .  S
C2288      C2483   1.467       .  S
Zr2311     O2312   2.442       .  S
Zr2311     O2313   2.443       .  S
Zr2311     O2314   2.447       .  S
Zr2311     O2317   2.455       .  S
Zr2311     O2319   2.389       .  S
Zr2311     O2320   2.383       .  S
Zr2311     O2321   2.416       .  S
Zr2311     O2322   2.403       .  S
O2312      H2368   0.991       .  S
O2312      H2376   0.990       .  S
O2313      C2333   1.285       .  A
O2314      C2335   1.284       .  A
O2315     Zr2325   2.392       .  S
O2315      C2334   1.276       .  A
O2316     Zr2324   2.447       .  S
O2316      C2335   1.287       .  A
O2317      C2334   1.288       .  A
O2318     Zr2326   2.427       .  S
O2318      C2333   1.282       .  A
O2319     Zr2324   2.399       .  S
O2319     Zr2326   2.385       .  S
O2320     Zr2325   2.384       .  S
O2320     Zr2326   2.376       .  S
O2320      H2355   0.966       .  S
O2321     Zr2324   2.409       .  S
O2321     Zr2341   2.381       .  S
O2321      H2358   0.964       .  S
O2322     Zr2325   2.384       .  S
O2322     Zr2341   2.388       .  S
Zr2323     O2348   2.439       .  S
Zr2323     O2342   2.454       .  S
Zr2323     O2350   2.462       .  S
Zr2323     O2338   2.431       .  S
Zr2323     O2329   2.408       .  S
Zr2323     O2330   2.415       .  S
Zr2323     O2331   2.382       .  S
Zr2323     O2332   2.380       .  S
Zr2324     O2343   2.436       .  S
Zr2324     O2336   2.436       .  S
Zr2324     O2337   2.449       .  S
Zr2324     O2330   2.400       .  S
Zr2324     O2331   2.392       .  S
Zr2325     O2327   2.437       .  S
Zr2325     O2349   2.436       .  S
Zr2325     O2351   2.394       .  S
Zr2325     O2329   2.381       .  S
Zr2325     O2332   2.389       .  S
Zr2326     O2352   2.435       .  S
Zr2326     O2353   2.437       .  S
Zr2326     O2328   2.437       .  S
Zr2326     O2329   2.403       .  S
Zr2326     O2330   2.392       .  S
O2327      H2364   0.990       .  S
O2328      H2359   0.990       .  S
O2328      H2373   0.990       .  S
O2330      H2356   0.965       .  S
O2331     Zr2341   2.375       .  S
O2332     Zr2341   2.366       .  S
O2332      H2357   0.965       .  S
C2333      C2963   1.474       .  S
C2334      C2835   1.464       .  S
C2335      C2387   1.471       .  S
O2336      H2372   0.990       .  S
O2337      C2339   1.287       .  A
O2338      C2339   1.284       .  A
C2339      C2640   1.469       .  S
O2340     Zr2341   2.435       .  S
O2340      H2369   0.990       .  S
Zr2341     O2344   2.434       .  S
Zr2341     O2345   2.439       .  S
Zr2341     O2346   2.422       .  S
O2342      C2347   1.287       .  A
O2343      H2360   0.990       .  S
O2343      H2375   0.990       .  S
O2344      H2361   0.990       .  S
O2345      H2365   0.990       .  S
O2345      H2374   0.990       .  S
O2346      C2347   1.281       .  A
C2347      C2467   1.471       .  S
O2348      H2367   0.990       .  S
O2348      H2371   0.990       .  S
O2349      H2363   0.990       .  S
O2349      H2370   0.990       .  S
O2350      C2354   1.290       .  A
O2351      C2354   1.277       .  A
O2352      H2362   0.990       .  S
O2353      H2366   0.990       .  S
C2354      C2400   1.468       .  S
C2377      C2382   1.380       .  A
C2377      C2378   1.402       .  A
C2377      O2383   1.317       .  A
C2378      C2379   1.401       .  A
C2378      H2389   1.082       .  S
C2379      C2388   1.360       .  A
C2379      C2380   1.380       .  A
C2380      C2381   1.408       .  A
C2380      O2386   1.323       .  A
C2381      C2382   1.408       .  A
C2381      H2390   1.082       .  S
C2382      C2385   1.368       .  A
O2383      C2384   1.330       .  A
C2384      C2385   1.394       .  A
C2385      H2391   1.082       .  S
O2386      C2387   1.334       .  A
C2387      C2388   1.390       .  A
C2388      H2392   1.083       .  S
C2393      C2398   1.380       .  A
C2393      C2394   1.405       .  A
C2393      O2399   1.312       .  A
C2394      C2395   1.400       .  A
C2394      H2405   1.082       .  S
C2395      C2404   1.370       .  A
C2395      C2396   1.379       .  A
C2396      C2397   1.405       .  A
C2396      O2402   1.311       .  A
C2397      C2398   1.400       .  A
C2397      H2406   1.082       .  S
C2398      C2401   1.368       .  A
O2399      C2400   1.332       .  A
C2400      C2401   1.390       .  A
C2401      H2407   1.082       .  S
O2402      C2403   1.333       .  A
C2403      C2404   1.390       .  A
C2404      H2408   1.082       .  S
C2409      C2414   1.381       .  A
C2409      C2410   1.400       .  A
C2409      O2415   1.319       .  A
C2410      C2411   1.401       .  A
C2410      H2421   1.082       .  S
C2411      C2420   1.356       .  A
C2411      C2412   1.381       .  A
C2412      C2413   1.407       .  A
C2412      O2418   1.325       .  A
C2413      C2414   1.408       .  A
C2413      H2422   1.082       .  S
C2414      C2417   1.364       .  A
O2415      C2416   1.329       .  A
C2416      C2417   1.393       .  A
C2417      H2423   1.083       .  S
O2418      C2419   1.332       .  A
C2419      C2420   1.391       .  A
C2420      H2424   1.083       .  S
C2425      C2430   1.381       .  A
C2425      C2426   1.399   1_565  A
C2425      O2431   1.315       .  A
C2426      C2427   1.398       .  A
C2426      H2437   1.082       .  S
C2427      C2436   1.357       .  A
C2427      C2428   1.379       .  A
C2428      C2429   1.409       .  A
C2428      O2434   1.323       .  A
C2429      C2430   1.408   1_545  A
C2429      H2438   1.082       .  S
C2430      C2433   1.368       .  A
O2431      C2432   1.328       .  A
C2432      C2433   1.394       .  A
C2433      H2439   1.082       .  S
O2434      C2435   1.335       .  A
C2435      C2436   1.388       .  A
C2436      H2440   1.083       .  S
C2441      C2446   1.381       .  A
C2441      C2442   1.401       .  A
C2441      O2447   1.324       .  A
C2442      C2443   1.404       .  A
C2442      H2453   1.082       .  S
C2443      C2452   1.353       .  A
C2443      C2444   1.381       .  A
C2444      C2445   1.400       .  A
C2444      O2450   1.323       .  A
C2445      C2446   1.403       .  A
C2445      H2454   1.082       .  S
C2446      C2449   1.353       .  A
O2447      C2448   1.331       .  A
C2448      C2449   1.394       .  A
C2449      H2455   1.083       .  S
O2450      C2451   1.329       .  A
C2451      C2452   1.395       .  A
C2452      H2456   1.083       .  S
C2457      C2462   1.380       .  A
C2457      C2458   1.409   1_565  A
C2457      O2463   1.327       .  A
C2458      C2459   1.411       .  A
C2458      H2469   1.082       .  S
C2459      C2468   1.368       .  A
C2459      C2460   1.381       .  A
C2460      C2461   1.400       .  A
C2460      O2466   1.319       .  A
C2461      C2462   1.400   1_545  A
C2461      H2470   1.082       .  S
C2462      C2465   1.355       .  A
O2463      C2464   1.333       .  A
C2464      C2465   1.389       .  A
C2465      H2471   1.083       .  S
O2466      C2467   1.329       .  A
C2467      C2468   1.395       .  A
C2468      H2472   1.082       .  S
C2473      C2478   1.380   1_565  A
C2473      C2474   1.404       .  A
C2473      O2479   1.312       .  A
C2474      C2475   1.399   1_565  A
C2474      H2485   1.082       .  S
C2475      C2484   1.368       .  A
C2475      C2476   1.379       .  A
C2476      C2477   1.404       .  A
C2476      O2482   1.312       .  A
C2477      C2478   1.400       .  A
C2477      H2486   1.082       .  S
C2478      C2481   1.367       .  A
O2479      C2480   1.331       .  A
C2480      C2481   1.391   1_565  A
C2481      H2487   1.082       .  S
O2482      C2483   1.332       .  A
C2483      C2484   1.389       .  A
C2484      H2488   1.082   1_545  S
C2489      C2494   1.381       .  A
C2489      C2490   1.397       .  A
C2489      O2495   1.315       .  A
C2490      C2491   1.398       .  A
C2490      H2501   1.083       .  S
C2491      C2500   1.351       .  A
C2491      C2492   1.381       .  A
C2492      C2493   1.408       .  A
C2492      O2498   1.327       .  A
C2493      C2494   1.409       .  A
C2493      H2502   1.082       .  S
C2494      C2497   1.366       .  A
O2495      C2496   1.328       .  A
C2496      C2497   1.393       .  A
C2497      H2503   1.083       .  S
O2498      C2499   1.333       .  A
C2499      C2500   1.389       .  A
C2500      H2504   1.083       .  S
C2505      C2510   1.380       .  A
C2505      C2506   1.408       .  A
C2505      O2511   1.323       .  A
C2506      C2507   1.407       .  A
C2506      H2517   1.082       .  S
C2507      C2516   1.367       .  A
C2507      C2508   1.381       .  A
C2508      C2509   1.399       .  A
C2508      O2514   1.315       .  A
C2509      C2510   1.399       .  A
C2509      H2518   1.082       .  S
C2510      C2513   1.357       .  A
O2511      C2512   1.333       .  A
C2512      C2513   1.389       .  A
C2513      H2519   1.083       .  S
O2514      C2515   1.328       .  A
C2515      C2516   1.394       .  A
C2516      H2520   1.082       .  S
C2521      C2526   1.380       .  A
C2521      C2522   1.407       .  A
C2521      O2527   1.324       .  A
C2522      C2523   1.407       .  A
C2522      H2533   1.082       .  S
C2523      C2532   1.365       .  A
C2523      C2524   1.380       .  A
C2524      C2525   1.405       .  A
C2524      O2530   1.322       .  A
C2525      C2526   1.405       .  A
C2525      H2534   1.082       .  S
C2526      C2529   1.363       .  A
O2527      C2528   1.333       .  A
C2528      C2529   1.392       .  A
C2529      H2535   1.082       .  S
O2530      C2531   1.331       .  A
C2531      C2532   1.394       .  A
C2532      H2536   1.083       .  S
C2537      C2542   1.381       .  A
C2537      C2538   1.401       .  A
C2537      O2543   1.316       .  A
C2538      C2539   1.400       .  A
C2538      H2549   1.082       .  S
C2539      C2548   1.360       .  A
C2539      C2540   1.381       .  A
C2540      C2541   1.404       .  A
C2540      O2546   1.319       .  A
C2541      C2542   1.403       .  A
C2541      H2550   1.082       .  S
C2542      C2545   1.364       .  A
O2543      C2544   1.329       .  A
C2544      C2545   1.391       .  A
C2545      H2551   1.082       .  S
O2546      C2547   1.331       .  A
C2547      C2548   1.390       .  A
C2548      H2552   1.083       .  S
C2553      C2558   1.380       .  A
C2553      C2554   1.405       .  A
C2553      O2559   1.321       .  A
C2554      C2555   1.405       .  A
C2554      H2565   1.082       .  S
C2555      C2564   1.365       .  A
C2555      C2556   1.380       .  A
C2556      C2557   1.405       .  A
C2556      O2562   1.320       .  A
C2557      C2558   1.404       .  A
C2557      H2566   1.082       .  S
C2558      C2561   1.363       .  A
O2559      C2560   1.331       .  A
C2560      C2561   1.392       .  A
C2561      H2567   1.083       .  S
O2562      C2563   1.332       .  A
C2563      C2564   1.393       .  A
C2564      H2568   1.082       .  S
C2569      C2574   1.380       .  A
C2569      C2570   1.398   1_565  A
C2569      O2575   1.310       .  A
C2570      C2571   1.396       .  A
C2570      H2581   1.083       .  S
C2571      C2580   1.358       .  A
C2571      C2572   1.380       .  A
C2572      C2573   1.411       .  A
C2572      O2578   1.322       .  A
C2573      C2574   1.408   1_545  A
C2573      H2582   1.082       .  S
C2574      C2577   1.375       .  A
O2575      C2576   1.328       .  A
C2576      C2577   1.394       .  A
C2577      H2583   1.082       .  S
O2578      C2579   1.333       .  A
C2579      C2580   1.388       .  A
C2580      H2584   1.083       .  S
C2585      C2590   1.381   1_545  A
C2585      C2586   1.401       .  A
C2585      O2591   1.324       .  A
C2586      C2587   1.404       .  A
C2586      H2597   1.082       .  S
C2587      C2596   1.352       .  A
C2587      C2588   1.381   1_545  A
C2588      C2589   1.398       .  A
C2588      O2594   1.322       .  A
C2589      C2590   1.402       .  A
C2589      H2598   1.082       .  S
C2590      C2593   1.350       .  A
O2591      C2592   1.331   1_545  A
C2592      C2593   1.392       .  A
C2593      H2599   1.083       .  S
O2594      C2595   1.329   1_565  A
C2595      C2596   1.394       .  A
C2596      H2600   1.083       .  S
C2601      C2606   1.380       .  A
C2601      C2602   1.406       .  A
C2601      O2607   1.321       .  A
C2602      C2603   1.405       .  A
C2602      H2613   1.082       .  S
C2603      C2612   1.364       .  A
C2603      C2604   1.381       .  A
C2604      C2605   1.402       .  A
C2604      O2610   1.318       .  A
C2605      C2606   1.401       .  A
C2605      H2614   1.082       .  S
C2606      C2609   1.360       .  A
O2607      C2608   1.332       .  A
C2608      C2609   1.390       .  A
C2609      H2615   1.083       .  S
O2610      C2611   1.330       .  A
C2611      C2612   1.393       .  A
C2612      H2616   1.082       .  S
C2617      C2622   1.379       .  A
C2617      C2618   1.405       .  A
C2617      O2623   1.312       .  A
C2618      C2619   1.401       .  A
C2618      H2629   1.082       .  S
C2619      C2628   1.368       .  A
C2619      C2620   1.380       .  A
C2620      C2621   1.403       .  A
C2620      O2626   1.312       .  A
C2621      C2622   1.398       .  A
C2621      H2630   1.082       .  S
C2622      C2625   1.367       .  A
O2623      C2624   1.332       .  A
C2624      C2625   1.388       .  A
C2625      H2631   1.082       .  S
O2626      C2627   1.330       .  A
C2627      C2628   1.392       .  A
C2628      H2632   1.082       .  S
C2633      C2638   1.381       .  A
C2633      C2634   1.400       .  A
C2633      O2639   1.317       .  A
C2634      C2635   1.400       .  A
C2634      H2645   1.082       .  S
C2635      C2644   1.359       .  A
C2635      C2636   1.380       .  A
C2636      C2637   1.408       .  A
C2636      O2642   1.323       .  A
C2637      C2638   1.407       .  A
C2637      H2646   1.082       .  S
C2638      C2641   1.367       .  A
O2639      C2640   1.329       .  A
C2640      C2641   1.393       .  A
C2641      H2647   1.082       .  S
O2642      C2643   1.333       .  A
C2643      C2644   1.389       .  A
C2644      H2648   1.083       .  S
C2649      C2654   1.380   1_565  A
C2649      C2650   1.402   1_565  A
C2649      O2655   1.313       .  A
C2650      C2651   1.398       .  A
C2650      H2661   1.082   1_545  S
C2651      C2660   1.364       .  A
C2651      C2652   1.380       .  A
C2652      C2653   1.405       .  A
C2652      O2658   1.314       .  A
C2653      C2654   1.402       .  A
C2653      H2662   1.082       .  S
C2654      C2657   1.367   1_545  A
O2655      C2656   1.331       .  A
C2656      C2657   1.392       .  A
C2657      H2663   1.082       .  S
O2658      C2659   1.332       .  A
C2659      C2660   1.389       .  A
C2660      H2664   1.082       .  S
C2665      C2670   1.380       .  A
C2665      C2666   1.412       .  A
C2665      O2671   1.324       .  A
C2666      C2667   1.409       .  A
C2666      H2677   1.082       .  S
C2667      C2676   1.375       .  A
C2667      C2668   1.380       .  A
C2668      C2669   1.397       .  A
C2668      O2674   1.310       .  A
C2669      C2670   1.395       .  A
C2669      H2678   1.083       .  S
C2670      C2673   1.356       .  A
O2671      C2672   1.334       .  A
C2672      C2673   1.387       .  A
C2673      H2679   1.083       .  S
O2674      C2675   1.328       .  A
C2675      C2676   1.394       .  A
C2676      H2680   1.082       .  S
C2681      C2686   1.379       .  A
C2681      C2682   1.404       .  A
C2681      O2687   1.312       .  A
C2682      C2683   1.399       .  A
C2682      H2693   1.082       .  S
C2683      C2692   1.367       .  A
C2683      C2684   1.380       .  A
C2684      C2685   1.405       .  A
C2684      O2690   1.312       .  A
C2685      C2686   1.401       .  A
C2685      H2694   1.082       .  S
C2686      C2689   1.369       .  A
O2687      C2688   1.331       .  A
C2688      C2689   1.392       .  A
C2689      H2695   1.082       .  S
O2690      C2691   1.332       .  A
C2691      C2692   1.389       .  A
C2692      H2696   1.082       .  S
C2697      C2702   1.380       .  A
C2697      C2698   1.408       .  A
C2697      O2703   1.321       .  A
C2698      C2699   1.406       .  A
C2698      H2709   1.082       .  S
C2699      C2708   1.368       .  A
C2699      C2700   1.380       .  A
C2700      C2701   1.401       .  A
C2700      O2706   1.315       .  A
C2701      C2702   1.399       .  A
C2701      H2710   1.082       .  S
C2702      C2705   1.360       .  A
O2703      C2704   1.332       .  A
C2704      C2705   1.389       .  A
C2705      H2711   1.083       .  S
O2706      C2707   1.329       .  A
C2707      C2708   1.394       .  A
C2708      H2712   1.083       .  S
C2713      C2718   1.381       .  A
C2713      C2714   1.402   1_565  A
C2713      O2719   1.317       .  A
C2714      C2715   1.401       .  A
C2714      H2725   1.082       .  S
C2715      C2724   1.359       .  A
C2715      C2716   1.381       .  A
C2716      C2717   1.403       .  A
C2716      O2722   1.319       .  A
C2717      C2718   1.402   1_545  A
C2717      H2726   1.082       .  S
C2718      C2721   1.362       .  A
O2719      C2720   1.330       .  A
C2720      C2721   1.391       .  A
C2721      H2727   1.082       .  S
O2722      C2723   1.331       .  A
C2723      C2724   1.390       .  A
C2724      H2728   1.083       .  S
C2729      C2734   1.380       .  A
C2729      C2730   1.399       .  A
C2729      O2735   1.313       .  A
C2730      C2731   1.397       .  A
C2730      H2741   1.083       .  S
C2731      C2740   1.358       .  A
C2731      C2732   1.380       .  A
C2732      C2733   1.410       .  A
C2732      O2738   1.323       .  A
C2733      C2734   1.409       .  A
C2733      H2742   1.082       .  S
C2734      C2737   1.373       .  A
O2735      C2736   1.329       .  A
C2736      C2737   1.394       .  A
C2737      H2743   1.082       .  S
O2738      C2739   1.334       .  A
C2739      C2740   1.386       .  A
C2740      H2744   1.083       .  S
C2745      C2750   1.380       .  A
C2745      C2746   1.405   1_554  A
C2745      O2751   1.313       .  A
C2746      C2747   1.400   1_565  A
C2746      H2757   1.082       .  S
C2747      C2756   1.368       .  A
C2747      C2748   1.380       .  A
C2748      C2749   1.404   1_556  A
C2748      O2754   1.313       .  A
C2749      C2750   1.400   1_545  A
C2749      H2758   1.082       .  S
C2750      C2753   1.368       .  A
O2751      C2752   1.332       .  A
C2752      C2753   1.391       .  A
C2753      H2759   1.082       .  S
O2754      C2755   1.332       .  A
C2755      C2756   1.391       .  A
C2756      H2760   1.082       .  S
C2761      C2766   1.379       .  A
C2761      C2762   1.410       .  A
C2761      O2767   1.326       .  A
C2762      C2763   1.409       .  A
C2762      H2773   1.082       .  S
C2763      C2772   1.371       .  A
C2763      C2764   1.379       .  A
C2764      C2765   1.408       .  A
C2764      O2770   1.322       .  A
C2765      C2766   1.407       .  A
C2765      H2774   1.082       .  S
C2766      C2769   1.367       .  A
O2767      C2768   1.335       .  A
C2768      C2769   1.394       .  A
C2769      H2775   1.083       .  S
O2770      C2771   1.334       .  A
C2771      C2772   1.394       .  A
C2772      H2776   1.082       .  S
C2777      C2782   1.380       .  A
C2777      C2778   1.401       .  A
C2777      O2783   1.311       .  A
C2778      C2779   1.397       .  A
C2778      H2789   1.082       .  S
C2779      C2788   1.362       .  A
C2779      C2780   1.381       .  A
C2780      C2781   1.402       .  A
C2780      O2786   1.312       .  A
C2781      C2782   1.399       .  A
C2781      H2790   1.082       .  S
C2782      C2785   1.365       .  A
O2783      C2784   1.330       .  A
C2784      C2785   1.389       .  A
C2785      H2791   1.082       .  S
O2786      C2787   1.330       .  A
C2787      C2788   1.389       .  A
C2788      H2792   1.083       .  S
C2793      C2798   1.380       .  A
C2793      C2794   1.399   1_554  A
C2793      O2799   1.316       .  A
C2794      C2795   1.398       .  A
C2794      H2805   1.082       .  S
C2795      C2804   1.357       .  A
C2795      C2796   1.380   1_556  A
C2796      C2797   1.409       .  A
C2796      O2802   1.324       .  A
C2797      C2798   1.408       .  A
C2797      H2806   1.082       .  S
C2798      C2801   1.368       .  A
O2799      C2800   1.329       .  A
C2800      C2801   1.395       .  A
C2801      H2807   1.082       .  S
O2802      C2803   1.334   1_554  A
C2803      C2804   1.388       .  A
C2804      H2808   1.083       .  S
C2809      C2814   1.380       .  A
C2809      C2810   1.405       .  A
C2809      O2815   1.320       .  A
C2810      C2811   1.404       .  A
C2810      H2821   1.082       .  S
C2811      C2820   1.364       .  A
C2811      C2812   1.380       .  A
C2812      C2813   1.404       .  A
C2812      O2818   1.319       .  A
C2813      C2814   1.403       .  A
C2813      H2822   1.082       .  S
C2814      C2817   1.362       .  A
O2815      C2816   1.332       .  A
C2816      C2817   1.392       .  A
C2817      H2823   1.083       .  S
O2818      C2819   1.331       .  A
C2819      C2820   1.391       .  A
C2820      H2824   1.082       .  S
C2825      C2830   1.380       .  A
C2825      C2826   1.402       .  A
C2825      O2831   1.311       .  A
C2826      C2827   1.398       .  A
C2826      H2837   1.082       .  S
C2827      C2836   1.364       .  A
C2827      C2828   1.380       .  A
C2828      C2829   1.402       .  A
C2828      O2834   1.312       .  A
C2829      C2830   1.398       .  A
C2829      H2838   1.082       .  S
C2830      C2833   1.364       .  A
O2831      C2832   1.330       .  A
C2832      C2833   1.388       .  A
C2833      H2839   1.082       .  S
O2834      C2835   1.331       .  A
C2835      C2836   1.389       .  A
C2836      H2840   1.082       .  S
C2841      C2846   1.381       .  A
C2841      C2842   1.400       .  A
C2841      O2847   1.313       .  A
C2842      C2843   1.398       .  A
C2842      H2853   1.083       .  S
C2843      C2852   1.359       .  A
C2843      C2844   1.381       .  A
C2844      C2845   1.409       .  A
C2844      O2850   1.321       .  A
C2845      C2846   1.407       .  A
C2845      H2854   1.082       .  S
C2846      C2849   1.372       .  A
O2847      C2848   1.329       .  A
C2848      C2849   1.393       .  A
C2849      H2855   1.082       .  S
O2850      C2851   1.332       .  A
C2851      C2852   1.387       .  A
C2852      H2856   1.083       .  S
C2857      C2862   1.381       .  A
C2857      C2858   1.401       .  A
C2857      O2863   1.325       .  A
C2858      C2859   1.404       .  A
C2858      H2869   1.082       .  S
C2859      C2868   1.352       .  A
C2859      C2860   1.381       .  A
C2860      C2861   1.402       .  A
C2860      O2866   1.325       .  A
C2861      C2862   1.406       .  A
C2861      H2870   1.082       .  S
C2862      C2865   1.353       .  A
O2863      C2864   1.331       .  A
C2864      C2865   1.395       .  A
C2865      H2871   1.083       .  S
O2866      C2867   1.332       .  A
C2867      C2868   1.393       .  A
C2868      H2872   1.083       .  S
C2873      C2878   1.380       .  A
C2873      C2874   1.405       .  A
C2873      O2879   1.320       .  A
C2874      C2875   1.404       .  A
C2874      H2885   1.082       .  S
C2875      C2884   1.363       .  A
C2875      C2876   1.381       .  A
C2876      C2877   1.402       .  A
C2876      O2882   1.318       .  A
C2877      C2878   1.401       .  A
C2877      H2886   1.082       .  S
C2878      C2881   1.360       .  A
O2879      C2880   1.331       .  A
C2880      C2881   1.390       .  A
C2881      H2887   1.083       .  S
O2882      C2883   1.330       .  A
C2883      C2884   1.392       .  A
C2884      H2888   1.083       .  S
C2889      C2894   1.381       .  A
C2889      C2890   1.401       .  A
C2889      O2895   1.316       .  A
C2890      C2891   1.400       .  A
C2890      H2901   1.082       .  S
C2891      C2900   1.360       .  A
C2891      C2892   1.381       .  A
C2892      C2893   1.403       .  A
C2892      O2898   1.317       .  A
C2893      C2894   1.402       .  A
C2893      H2902   1.082       .  S
C2894      C2897   1.363       .  A
O2895      C2896   1.329       .  A
C2896      C2897   1.391       .  A
C2897      H2903   1.083       .  S
O2898      C2899   1.330       .  A
C2899      C2900   1.389       .  A
C2900      H2904   1.083       .  S
C2905      C2910   1.381       .  A
C2905      C2906   1.402       .  A
C2905      O2911   1.311       .  A
C2906      C2907   1.398       .  A
C2906      H2917   1.082       .  S
C2907      C2916   1.364       .  A
C2907      C2908   1.381       .  A
C2908      C2909   1.399       .  A
C2908      O2914   1.308       .  A
C2909      C2910   1.395       .  A
C2909      H2918   1.082       .  S
C2910      C2913   1.361       .  A
O2911      C2912   1.331       .  A
C2912      C2913   1.387       .  A
C2913      H2919   1.082       .  S
O2914      C2915   1.329       .  A
C2915      C2916   1.388       .  A
C2916      H2920   1.082       .  S
C2921      C2926   1.380       .  A
C2921      C2922   1.410       .  A
C2921      O2927   1.322       .  A
C2922      C2923   1.408       .  A
C2922      H2933   1.082       .  S
C2923      C2932   1.374       .  A
C2923      C2924   1.380       .  A
C2924      C2925   1.402       .  A
C2924      O2930   1.315       .  A
C2925      C2926   1.399       .  A
C2925      H2934   1.083       .  S
C2926      C2929   1.361       .  A
O2927      C2928   1.333       .  A
C2928      C2929   1.389       .  A
C2929      H2935   1.083       .  S
O2930      C2931   1.330       .  A
C2931      C2932   1.394       .  A
C2932      H2936   1.082       .  S
C2937      C2942   1.379       .  A
C2937      C2938   1.405       .  A
C2937      O2943   1.312       .  A
C2938      C2939   1.400       .  A
C2938      H2949   1.082       .  S
C2939      C2948   1.369       .  A
C2939      C2940   1.379       .  A
C2940      C2941   1.407       .  A
C2940      O2946   1.314       .  A
C2941      C2942   1.402       .  A
C2941      H2950   1.082       .  S
C2942      C2945   1.370       .  A
O2943      C2944   1.332       .  A
C2944      C2945   1.391       .  A
C2945      H2951   1.082       .  S
O2946      C2947   1.334       .  A
C2947      C2948   1.390       .  A
C2948      H2952   1.082       .  S
C2953      C2958   1.380       .  A
C2953      C2954   1.406       .  A
C2953      O2959   1.322       .  A
C2954      C2955   1.405       .  A
C2954      H2965   1.082       .  S
C2955      C2964   1.364       .  A
C2955      C2956   1.380       .  A
C2956      C2957   1.405       .  A
C2956      O2962   1.321       .  A
C2957      C2958   1.404       .  A
C2957      H2966   1.082       .  S
C2958      C2961   1.363       .  A
O2959      C2960   1.332       .  A
C2960      C2961   1.392       .  A
C2961      H2967   1.082       .  S
O2962      C2963   1.332       .  A
C2963      C2964   1.392       .  A
C2964      H2968   1.082       .  S
C2969      C2974   1.381       .  A
C2969      C2970   1.400       .  A
C2969      O2975   1.316       .  A
C2970      C2971   1.399       .  A
C2970      H2981   1.082       .  S
C2971      C2980   1.357       .  A
C2971      C2972   1.381       .  A
C2972      C2973   1.403       .  A
C2972      O2978   1.318       .  A
C2973      C2974   1.402       .  A
C2973      H2982   1.082       .  S
C2974      C2977   1.361       .  A
O2975      C2976   1.329       .  A
C2976      C2977   1.390       .  A
C2977      H2983   1.082       .  S
O2978      C2979   1.330       .  A
C2979      C2980   1.389       .  A
C2980      H2984   1.083       .  S
C2985      C2990   1.380       .  A
C2985      C2986   1.410       .  A
C2985      O2991   1.322       .  A
C2986      C2987   1.408       .  A
C2986      H2997   1.082       .  S
C2987      C2996   1.372       .  A
C2987      C2988   1.380       .  A
C2988      C2989   1.400       .  A
C2988      O2994   1.313       .  A
C2989      C2990   1.398       .  A
C2989      H2998   1.083       .  S
C2990      C2993   1.360       .  A
O2991      C2992   1.334       .  A
C2992      C2993   1.387       .  A
C2993      H2999   1.083       .  S
O2994      C2995   1.329       .  A
C2995      C2996   1.393       .  A
C2996      H3000   1.082       .  S
C3001      C3006   1.380       .  A
C3001      C3002   1.405       .  A
C3001      O3007   1.321       .  A
C3002      C3003   1.404       .  A
C3002      H3013   1.082       .  S
C3003      C3012   1.362       .  A
C3003      C3004   1.380       .  A
C3004      C3005   1.407       .  A
C3004      O3010   1.323       .  A
C3005      C3006   1.407       .  A
C3005      H3014   1.082       .  S
C3006      C3009   1.366       .  A
O3007      C3008   1.332       .  A
C3008      C3009   1.394       .  A
C3009      H3015   1.082       .  S
O3010      C3011   1.333       .  A
C3011      C3012   1.392       .  A
C3012      H3016   1.083       .  S
C3017      C3022   1.381       .  A
C3017      C3018   1.401       .  A
C3017      O3023   1.321       .  A
C3018      C3019   1.403       .  A
C3018      H3029   1.082       .  S
C3019      C3028   1.354   1_556  A
C3019      C3020   1.381   1_556  A
C3020      C3021   1.399       .  A
C3020      O3026   1.320       .  A
C3021      C3022   1.401   1_554  A
C3021      H3030   1.082       .  S
C3022      C3025   1.352       .  A
O3023      C3024   1.330       .  A
C3024      C3025   1.392       .  A
C3025      H3031   1.083   1_556  S
O3026      C3027   1.328       .  A
C3027      C3028   1.393       .  A
C3028      H3032   1.083   1_554  S
C3033      C3038   1.380       .  A
C3033      C3034   1.404       .  A
C3033      O3039   1.319       .  A
C3034      C3035   1.402       .  A
C3034      H3045   1.082       .  S
C3035      C3044   1.362       .  A
C3035      C3036   1.380       .  A
C3036      C3037   1.408       .  A
C3036      O3042   1.323       .  A
C3037      C3038   1.408       .  A
C3037      H3046   1.082       .  S
C3038      C3041   1.369       .  A
O3039      C3040   1.332       .  A
C3040      C3041   1.395       .  A
C3041      H3047   1.082       .  S
O3042      C3043   1.333       .  A
C3043      C3044   1.391       .  A
C3044      H3048   1.083       .  S
C3049      C3054   1.380       .  A
C3049      C3050   1.402       .  A
C3049      O3055   1.319       .  A
C3050      C3051   1.402       .  A
C3050      H3061   1.082       .  S
C3051      C3060   1.358       .  A
C3051      C3052   1.380       .  A
C3052      C3053   1.409       .  A
C3052      O3058   1.326       .  A
C3053      C3054   1.409       .  A
C3053      H3062   1.082       .  S
C3054      C3057   1.367       .  A
O3055      C3056   1.331       .  A
C3056      C3057   1.394       .  A
C3057      H3063   1.082       .  S
O3058      C3059   1.334       .  A
C3059      C3060   1.391       .  A
C3060      H3064   1.083       .  S
C3065      C3070   1.381       .  A
C3065      C3066   1.400       .  A
C3065      O3071   1.309       .  A
C3066      C3067   1.396       .  A
C3066      H3077   1.082       .  S
C3067      C3076   1.362       .  A
C3067      C3068   1.380       .  A
C3068      C3069   1.402       .  A
C3068      O3074   1.311       .  A
C3069      C3070   1.398       .  A
C3069      H3078   1.082       .  S
C3070      C3073   1.363       .  A
O3071      C3072   1.329       .  A
C3072      C3073   1.388       .  A
C3073      H3079   1.083       .  S
O3074      C3075   1.330       .  A
C3075      C3076   1.388       .  A
C3076      H3080   1.082       .  S
C3081      C3086   1.380       .  A
C3081      C3082   1.408       .  A
C3081      O3087   1.322       .  A
C3082      C3083   1.408       .  A
C3082      H3093   1.082       .  S
C3083      C3092   1.369       .  A
C3083      C3084   1.380       .  A
C3084      C3085   1.402       .  A
C3084      O3090   1.317       .  A
C3085      C3086   1.400       .  A
C3085      H3094   1.082       .  S
C3086      C3089   1.359       .  A
O3087      C3088   1.333       .  A
C3088      C3089   1.389       .  A
C3089      H3095   1.083       .  S
O3090      C3091   1.330       .  A
C3091      C3092   1.395       .  A
C3092      H3096   1.082       .  S
C3097      C3102   1.379       .  A
C3097      C3098   1.409       .  A
C3097      O3103   1.315       .  A
C3098      C3099   1.403       .  A
C3098      H3109   1.082       .  S
C3099      C3108   1.372       .  A
C3099      C3100   1.379       .  A
C3100      C3101   1.403       .  A
C3100      O3106   1.311       .  A
C3101      C3102   1.399       .  A
C3101      H3110   1.082       .  S
C3102      C3105   1.368       .  A
O3103      C3104   1.335       .  A
C3104      C3105   1.390       .  A
C3105      H3111   1.082       .  S
O3106      C3107   1.331       .  A
C3107      C3108   1.393       .  A
C3108      H3112   1.082       .  S
C3113      C3118   1.381       .  A
C3113      C3114   1.403       .  A
C3113      O3119   1.319       .  A
C3114      C3115   1.402       .  A
C3114      H3125   1.082       .  S
C3115      C3124   1.361       .  A
C3115      C3116   1.380       .  A
C3116      C3117   1.405       .  A
C3116      O3122   1.321       .  A
C3117      C3118   1.405       .  A
C3117      H3126   1.082       .  S
C3118      C3121   1.363       .  A
O3119      C3120   1.330       .  A
C3120      C3121   1.392       .  A
C3121      H3127   1.083       .  S
O3122      C3123   1.332       .  A
C3123      C3124   1.391       .  A
C3124      H3128   1.083       .  S
C3129      C3134   1.380       .  A
C3129      C3130   1.404       .  A
C3129      O3135   1.319       .  A
C3130      C3131   1.403       .  A
C3130      H3141   1.082       .  S
C3131      C3140   1.363       .  A
C3131      C3132   1.380       .  A
C3132      C3133   1.407       .  A
C3132      O3138   1.322       .  A
C3133      C3134   1.406       .  A
C3133      H3142   1.082       .  S
C3134      C3137   1.367       .  A
O3135      C3136   1.332       .  A
C3136      C3137   1.393       .  A
C3137      H3143   1.082       .  S
O3138      C3139   1.333       .  A
C3139      C3140   1.392       .  A
C3140      H3144   1.083       .  S
C3145      C3150   1.380       .  A
C3145      C3146   1.400       .  A
C3145      O3151   1.308       .  A
C3146      C3147   1.396       .  A
C3146      H3157   1.082       .  S
C3147      C3156   1.362       .  A
C3147      C3148   1.380       .  A
C3148      C3149   1.406       .  A
C3148      O3154   1.314       .  A
C3149      C3150   1.401       .  A
C3149      H3158   1.082       .  S
C3150      C3153   1.369       .  A
O3151      C3152   1.329       .  A
C3152      C3153   1.391       .  A
C3153      H3159   1.082       .  S
O3154      C3155   1.332       .  A
C3155      C3156   1.388       .  A
C3156      H3160   1.083       .  S
C3161      C3166   1.380   1_554  A
C3161      C3162   1.403       .  A
C3161      O3167   1.318       .  A
C3162      C3163   1.402   1_554  A
C3162      H3173   1.082       .  S
C3163      C3172   1.362       .  A
C3163      C3164   1.380       .  A
C3164      C3165   1.406       .  A
C3164      O3170   1.321       .  A
C3165      C3166   1.405       .  A
C3165      H3174   1.082       .  S
C3166      C3169   1.365       .  A
O3167      C3168   1.331       .  A
C3168      C3169   1.392   1_554  A
C3169      H3175   1.082       .  S
O3170      C3171   1.332       .  A
C3171      C3172   1.390       .  A
C3172      H3176   1.082   1_556  S
C3177      C3182   1.379       .  A
C3177      C3178   1.413       .  A
C3177      O3183   1.325       .  A
C3178      C3179   1.411       .  A
C3178      H3189   1.082       .  S
C3179      C3188   1.376       .  A
C3179      C3180   1.380       .  A
C3180      C3181   1.401       .  A
C3180      O3186   1.315       .  A
C3181      C3182   1.399       .  A
C3181      H3190   1.082       .  S
C3182      C3185   1.361       .  A
O3183      C3184   1.335       .  A
C3184      C3185   1.388       .  A
C3185      H3191   1.083       .  S
O3186      C3187   1.330       .  A
C3187      C3188   1.396       .  A
C3188      H3192   1.082       .  S
C3193      C3198   1.380       .  A
C3193      C3194   1.400       .  A
C3193      O3199   1.316       .  A
C3194      C3195   1.400       .  A
C3194      H3205   1.082       .  S
C3195      C3204   1.359       .  A
C3195      C3196   1.380       .  A
C3196      C3197   1.406       .  A
C3196      O3202   1.320       .  A
C3197      C3198   1.405       .  A
C3197      H3206   1.082       .  S
C3198      C3201   1.365       .  A
O3199      C3200   1.328       .  A
C3200      C3201   1.392       .  A
C3201      H3207   1.082       .  S
O3202      C3203   1.332       .  A
C3203      C3204   1.390       .  A
C3204      H3208   1.083       .  S
C3209      C3214   1.382       .  A
C3209      C3210   1.398       .  A
C3209      O3215   1.320       .  A
C3210      C3211   1.400       .  A
C3210      H3221   1.082       .  S
C3211      C3220   1.352       .  A
C3211      C3212   1.382       .  A
C3212      C3213   1.399       .  A
C3212      O3218   1.320       .  A
C3213      C3214   1.401       .  A
C3213      H3222   1.082       .  S
C3214      C3217   1.352       .  A
O3215      C3216   1.328       .  A
C3216      C3217   1.392       .  A
C3217      H3223   1.083       .  S
O3218      C3219   1.329       .  A
C3219      C3220   1.391       .  A
C3220      H3224   1.083       .  S
C3225      C3230   1.380       .  A
C3225      C3226   1.405       .  A
C3225      O3231   1.314       .  A
C3226      C3227   1.401       .  A
C3226      H3237   1.082       .  S
C3227      C3236   1.367       .  A
C3227      C3228   1.380       .  A
C3228      C3229   1.403       .  A
C3228      O3234   1.312       .  A
C3229      C3230   1.399       .  A
C3229      H3238   1.082       .  S
C3230      C3233   1.367       .  A
O3231      C3232   1.333       .  A
C3232      C3233   1.389       .  A
C3233      H3239   1.082       .  S
O3234      C3235   1.331       .  A
C3235      C3236   1.390       .  A
C3236      H3240   1.082       .  S
C3241      C3246   1.381       .  A
C3241      C3242   1.400       .  A
C3241      O3247   1.316       .  A
C3242      C3243   1.399       .  A
C3242      H3253   1.082       .  S
C3243      C3252   1.356       .  A
C3243      C3244   1.381       .  A
C3244      C3245   1.405       .  A
C3244      O3250   1.320       .  A
C3245      C3246   1.404       .  A
C3245      H3254   1.082       .  S
C3246      C3249   1.364       .  A
O3247      C3248   1.329       .  A
C3248      C3249   1.391       .  A
C3249      H3255   1.082       .  S
O3250      C3251   1.331       .  A
C3251      C3252   1.388       .  A
C3252      H3256   1.083       .  S
C3257      C3262   1.380       .  A
C3257      C3258   1.401       .  A
C3257      O3263   1.320       .  A
C3258      C3259   1.402       .  A
C3258      H3269   1.083       .  S
C3259      C3268   1.356       .  A
C3259      C3260   1.380       .  A
C3260      C3261   1.410       .  A
C3260      O3266   1.329       .  A
C3261      C3262   1.412       .  A
C3261      H3270   1.082       .  S
C3262      C3265   1.370       .  A
O3263      C3264   1.330       .  A
C3264      C3265   1.395       .  A
C3265      H3271   1.082       .  S
O3266      C3267   1.334       .  A
C3267      C3268   1.390       .  A
C3268      H3272   1.083       .  S
C3273      C3278   1.379       .  A
C3273      C3274   1.406       .  A
C3273      O3279   1.314       .  A
C3274      C3275   1.402       .  A
C3274      H3285   1.082       .  S
C3275      C3284   1.370       .  A
C3275      C3276   1.379       .  A
C3276      C3277   1.403       .  A
C3276      O3282   1.312       .  A
C3277      C3278   1.399       .  A
C3277      H3286   1.082       .  S
C3278      C3281   1.366       .  A
O3279      C3280   1.333       .  A
C3280      C3281   1.389       .  A
C3281      H3287   1.082       .  S
O3282      C3283   1.332       .  A
C3283      C3284   1.392       .  A
C3284      H3288   1.082       .  S
C3289      C3294   1.381       .  A
C3289      C3290   1.401       .  A
C3289      O3295   1.320       .  A
C3290      C3291   1.402       .  A
C3290      H3301   1.082       .  S
C3291      C3300   1.356       .  A
C3291      C3292   1.380       .  A
C3292      C3293   1.409       .  A
C3292      O3298   1.327       .  A
C3293      C3294   1.409       .  A
C3293      H3302   1.082       .  S
C3294      C3297   1.366       .  A
O3295      C3296   1.329       .  A
C3296      C3297   1.393       .  A
C3297      H3303   1.082       .  S
O3298      C3299   1.335       .  A
C3299      C3300   1.392       .  A
C3300      H3304   1.083       .  S
C3305      C3310   1.380       .  A
C3305      C3306   1.404       .  A
C3305      O3311   1.318       .  A
C3306      C3307   1.403       .  A
C3306      H3317   1.083       .  S
C3307      C3316   1.360       .  A
C3307      C3308   1.381       .  A
C3308      C3309   1.402       .  A
C3308      O3314   1.320       .  A
C3309      C3310   1.402       .  A
C3309      H3318   1.082       .  S
C3310      C3313   1.361       .  A
O3311      C3312   1.331       .  A
C3312      C3313   1.390       .  A
C3313      H3319   1.082       .  S
O3314      C3315   1.329       .  A
C3315      C3316   1.392       .  A
C3316      H3320   1.083       .  S
C3321      C3326   1.381       .  A
C3321      C3322   1.402       .  A
C3321      O3327   1.321       .  A
C3322      C3323   1.403       .  A
C3322      H3333   1.082       .  S
C3323      C3332   1.359       .  A
C3323      C3324   1.381       .  A
C3324      C3325   1.407       .  A
C3324      O3330   1.326       .  A
C3325      C3326   1.408       .  A
C3325      H3334   1.082       .  S
C3326      C3329   1.365       .  A
O3327      C3328   1.330       .  A
C3328      C3329   1.392       .  A
C3329      H3335   1.083       .  S
O3330      C3331   1.333       .  A
C3331      C3332   1.391       .  A
C3332      H3336   1.083       .  S
C3337      C3342   1.381       .  A
C3337      C3338   1.404       .  A
C3337      O3343   1.320       .  A
C3338      C3339   1.404       .  A
C3338      H3349   1.082       .  S
C3339      C3348   1.362       .  A
C3339      C3340   1.380       .  A
C3340      C3341   1.406       .  A
C3340      O3346   1.322       .  A
C3341      C3342   1.405       .  A
C3341      H3350   1.082       .  S
C3342      C3345   1.363       .  A
O3343      C3344   1.331       .  A
C3344      C3345   1.392       .  A
C3345      H3351   1.083       .  S
O3346      C3347   1.333       .  A
C3347      C3348   1.392       .  A
C3348      H3352   1.082       .  S
C3353      C3358   1.380       .  A
C3353      C3354   1.404       .  A
C3353      O3359   1.320       .  A
C3354      C3355   1.403       .  A
C3354      H3365   1.082       .  S
C3355      C3364   1.362       .  A
C3355      C3356   1.380       .  A
C3356      C3357   1.408       .  A
C3356      O3362   1.323       .  A
C3357      C3358   1.407       .  A
C3357      H3366   1.082       .  S
C3358      C3361   1.366       .  A
O3359      C3360   1.331       .  A
C3360      C3361   1.393       .  A
C3361      H3367   1.082       .  S
O3362      C3363   1.334       .  A
C3363      C3364   1.391       .  A
C3364      H3368   1.082       .  S
C3369      C3374   1.381       .  A
C3369      C3370   1.402   1_455  A
C3369      O3375   1.317       .  A
C3370      C3371   1.401       .  A
C3370      H3381   1.082       .  S
C3371      C3380   1.358       .  A
C3371      C3372   1.381       .  A
C3372      C3373   1.403       .  A
C3372      O3378   1.319       .  A
C3373      C3374   1.403   1_655  A
C3373      H3382   1.082       .  S
C3374      C3377   1.362       .  A
O3375      C3376   1.330       .  A
C3376      C3377   1.390       .  A
C3377      H3383   1.082       .  S
O3378      C3379   1.331       .  A
C3379      C3380   1.390       .  A
C3380      H3384   1.083       .  S
C3385      C3390   1.380   1_554  A
C3385      C3386   1.407       .  A
C3385      O3391   1.323       .  A
C3386      C3387   1.406       .  A
C3386      H3397   1.082       .  S
C3387      C3396   1.365       .  A
C3387      C3388   1.380       .  A
C3388      C3389   1.404   1_554  A
C3388      O3394   1.320       .  A
C3389      C3390   1.404       .  A
C3389      H3398   1.082       .  S
C3390      C3393   1.363       .  A
O3391      C3392   1.332   1_554  A
C3392      C3393   1.392       .  A
C3393      H3399   1.083       .  S
O3394      C3395   1.331       .  A
C3395      C3396   1.393       .  A
C3396      H3400   1.082       .  S
C3401      C3406   1.381       .  A
C3401      C3402   1.403       .  A
C3401      O3407   1.318       .  A
C3402      C3403   1.403       .  A
C3402      H3413   1.082       .  S
C3403      C3412   1.363       .  A
C3403      C3404   1.381   1_556  A
C3404      C3405   1.404       .  A
C3404      O3410   1.319       .  A
C3405      C3406   1.403   1_554  A
C3405      H3414   1.082       .  S
C3406      C3409   1.362       .  A
O3407      C3408   1.330       .  A
C3408      C3409   1.390       .  A
C3409      H3415   1.083   1_556  S
O3410      C3411   1.331       .  A
C3411      C3412   1.391   1_554  A
C3412      H3416   1.082       .  S
C3417      C3422   1.380       .  A
C3417      C3418   1.405       .  A
C3417      O3423   1.316       .  A
C3418      C3419   1.402       .  A
C3418      H3429   1.082       .  S
C3419      C3428   1.366       .  A
C3419      C3420   1.380       .  A
C3420      C3421   1.402       .  A
C3420      O3426   1.313       .  A
C3421      C3422   1.399       .  A
C3421      H3430   1.082       .  S
C3422      C3425   1.364       .  A
O3423      C3424   1.333       .  A
C3424      C3425   1.390       .  A
C3425      H3431   1.082       .  S
O3426      C3427   1.330       .  A
C3427      C3428   1.391       .  A
C3428      H3432   1.082       .  S
C3433      C3438   1.380       .  A
C3433      C3434   1.412       .  A
C3433      O3439   1.324       .  A
C3434      C3435   1.410       .  A
C3434      H3445   1.082       .  S
C3435      C3444   1.376       .  A
C3435      C3436   1.380       .  A
C3436      C3437   1.399       .  A
C3436      O3442   1.312       .  A
C3437      C3438   1.397       .  A
C3437      H3446   1.083       .  S
C3438      C3441   1.359       .  A
O3439      C3440   1.334       .  A
C3440      C3441   1.387       .  A
C3441      H3447   1.083   1_455  S
O3442      C3443   1.329       .  A
C3443      C3444   1.395       .  A
C3444      H3448   1.082       .  S
C3449      C3454   1.380       .  A
C3449      C3450   1.403       .  A
C3449      O3455   1.311       .  A
C3450      C3451   1.398       .  A
C3450      H3461   1.082       .  S
C3451      C3460   1.365       .  A
C3451      C3452   1.380       .  A
C3452      C3453   1.404       .  A
C3452      O3458   1.312       .  A
C3453      C3454   1.400       .  A
C3453      H3462   1.082       .  S
C3454      C3457   1.367       .  A
O3455      C3456   1.331       .  A
C3456      C3457   1.390       .  A
C3457      H3463   1.082       .  S
O3458      C3459   1.332       .  A
C3459      C3460   1.389       .  A
C3460      H3464   1.082       .  S
C3465      C3470   1.380       .  A
C3465      C3466   1.402       .  A
C3465      O3471   1.318       .  A
C3466      C3467   1.401       .  A
C3466      H3477   1.082       .  S
C3467      C3476   1.360       .  A
C3467      C3468   1.380       .  A
C3468      C3469   1.409       .  A
C3468      O3474   1.325       .  A
C3469      C3470   1.409       .  A
C3469      H3478   1.082       .  S
C3470      C3473   1.368       .  A
O3471      C3472   1.330       .  A
C3472      C3473   1.394       .  A
C3473      H3479   1.082       .  S
O3474      C3475   1.335       .  A
C3475      C3476   1.390       .  A
C3476      H3480   1.083       .  S
C3481      C3486   1.380       .  A
C3481      C3482   1.404       .  A
C3481      O3487   1.311       .  A
C3482      C3483   1.399       .  A
C3482      H3493   1.082       .  S
C3483      C3492   1.366       .  A
C3483      C3484   1.380       .  A
C3484      C3485   1.400       .  A
C3484      O3490   1.309       .  A
C3485      C3486   1.396       .  A
C3485      H3494   1.082       .  S
C3486      C3489   1.363       .  A
O3487      C3488   1.332       .  A
C3488      C3489   1.387       .  A
C3489      H3495   1.082       .  S
O3490      C3491   1.329       .  A
C3491      C3492   1.390       .  A
C3492      H3496   1.082       .  S
C3497      C3502   1.381       .  A
C3497      C3498   1.403       .  A
C3497      O3503   1.320       .  A
C3498      C3499   1.402       .  A
C3498      H3509   1.082       .  S
C3499      C3508   1.360       .  A
C3499      C3500   1.380       .  A
C3500      C3501   1.403       .  A
C3500      O3506   1.320       .  A
C3501      C3502   1.404       .  A
C3501      H3510   1.082       .  S
C3502      C3505   1.360       .  A
O3503      C3504   1.330       .  A
C3504      C3505   1.392       .  A
C3505      H3511   1.083       .  S
O3506      C3507   1.331       .  A
C3507      C3508   1.390       .  A
C3508      H3512   1.082       .  S
C3513      C3518   1.382       .  A
C3513      C3514   1.398   1_655  A
C3513      O3519   1.321       .  A
C3514      C3515   1.401       .  A
C3514      H3525   1.082       .  S
C3515      C3524   1.350       .  A
C3515      C3516   1.381   1_455  A
C3516      C3517   1.399       .  A
C3516      O3522   1.321       .  A
C3517      C3518   1.402       .  A
C3517      H3526   1.082       .  S
C3518      C3521   1.351       .  A
O3519      C3520   1.329       .  A
C3520      C3521   1.393       .  A
C3521      H3527   1.083       .  S
O3522      C3523   1.329   1_655  A
C3523      C3524   1.391       .  A
C3524      H3528   1.083       .  S
C3529      C3534   1.380       .  A
C3529      C3530   1.405       .  A
C3529      O3535   1.320       .  A
C3530      C3531   1.404       .  A
C3530      H3541   1.082       .  S
C3531      C3540   1.365       .  A
C3531      C3532   1.380       .  A
C3532      C3533   1.404       .  A
C3532      O3538   1.319       .  A
C3533      C3534   1.402       .  A
C3533      H3542   1.082       .  S
C3534      C3537   1.362       .  A
O3535      C3536   1.331       .  A
C3536      C3537   1.391       .  A
C3537      H3543   1.083       .  S
O3538      C3539   1.331       .  A
C3539      C3540   1.392       .  A
C3540      H3544   1.082       .  S
C3545      C3550   1.380       .  A
C3545      C3546   1.405       .  A
C3545      O3551   1.320       .  A
C3546      C3547   1.404       .  A
C3546      H3557   1.082       .  S
C3547      C3556   1.364       .  A
C3547      C3548   1.380       .  A
C3548      C3549   1.405       .  A
C3548      O3554   1.321       .  A
C3549      C3550   1.404       .  A
C3549      H3558   1.082       .  S
C3550      C3553   1.364       .  A
O3551      C3552   1.332       .  A
C3552      C3553   1.391       .  A
C3553      H3559   1.082       .  S
O3554      C3555   1.332       .  A
C3555      C3556   1.392       .  A
C3556      H3560   1.082       .  S
C3561      C3566   1.381       .  A
C3561      C3562   1.399       .  A
C3561      O3567   1.319       .  A
C3562      C3563   1.400       .  A
C3562      H3573   1.082       .  S
C3563      C3572   1.352       .  A
C3563      C3564   1.381       .  A
C3564      C3565   1.403       .  A
C3564      O3570   1.322       .  A
C3565      C3566   1.405       .  A
C3565      H3574   1.082       .  S
C3566      C3569   1.358       .  A
O3567      C3568   1.329       .  A
C3568      C3569   1.395       .  A
C3569      H3575   1.083       .  S
O3570      C3571   1.331       .  A
C3571      C3572   1.391       .  A
C3572      H3576   1.083       .  S
C3577      C3582   1.380       .  A
C3577      C3578   1.399       .  A
C3577      O3583   1.314       .  A
C3578      C3579   1.398       .  A
C3578      H3589   1.083       .  S
C3579      C3588   1.358       .  A
C3579      C3580   1.380       .  A
C3580      C3581   1.412       .  A
C3580      O3586   1.325       .  A
C3581      C3582   1.410       .  A
C3581      H3590   1.082       .  S
C3582      C3585   1.375       .  A
O3583      C3584   1.330       .  A
C3584      C3585   1.394       .  A
C3585      H3591   1.082       .  S
O3586      C3587   1.335       .  A
C3587      C3588   1.388       .  A
C3588      H3592   1.083       .  S
C3593      C3598   1.381       .  A
C3593      C3594   1.401       .  A
C3593      O3599   1.323       .  A
C3594      C3595   1.403       .  A
C3594      H3605   1.082       .  S
C3595      C3604   1.354       .  A
C3595      C3596   1.381       .  A
C3596      C3597   1.398       .  A
C3596      O3602   1.320       .  A
C3597      C3598   1.401       .  A
C3597      H3606   1.082       .  S
C3598      C3601   1.351       .  A
O3599      C3600   1.330       .  A
C3600      C3601   1.394       .  A
C3601      H3607   1.083       .  S
O3602      C3603   1.328       .  A
C3603      C3604   1.393       .  A
C3604      H3608   1.083       .  S
C3609      C3614   1.381       .  A
C3609      C3610   1.406       .  A
C3609      O3615   1.322       .  A
C3610      C3611   1.405       .  A
C3610      H3621   1.082       .  S
C3611      C3620   1.363       .  A
C3611      C3612   1.381       .  A
C3612      C3613   1.402       .  A
C3612      O3618   1.319       .  A
C3613      C3614   1.402       .  A
C3613      H3622   1.082       .  S
C3614      C3617   1.359       .  A
O3615      C3616   1.333       .  A
C3616      C3617   1.390       .  A
C3617      H3623   1.082       .  S
O3618      C3619   1.330       .  A
C3619      C3620   1.392       .  A
C3620      H3624   1.082       .  S
C3625      C3630   1.380       .  A
C3625      C3626   1.409   1_455  A
C3625      O3631   1.321       .  A
C3626      C3627   1.407       .  A
C3626      H3637   1.082       .  S
C3627      C3636   1.372       .  A
C3627      C3628   1.381       .  A
C3628      C3629   1.398       .  A
C3628      O3634   1.310       .  A
C3629      C3630   1.396   1_655  A
C3629      H3638   1.083       .  S
C3630      C3633   1.359       .  A
O3631      C3632   1.333       .  A
C3632      C3633   1.386       .  A
C3633      H3639   1.083       .  S
O3634      C3635   1.327       .  A
C3635      C3636   1.393       .  A
C3636      H3640   1.082       .  S
C3641      C3646   1.381       .  A
C3641      C3642   1.403       .  A
C3641      O3647   1.319       .  A
C3642      C3643   1.402       .  A
C3642      H3653   1.082       .  S
C3643      C3652   1.360       .  A
C3643      C3644   1.380       .  A
C3644      C3645   1.405       .  A
C3644      O3650   1.321       .  A
C3645      C3646   1.405       .  A
C3645      H3654   1.082       .  S
C3646      C3649   1.363       .  A
O3647      C3648   1.330       .  A
C3648      C3649   1.393       .  A
C3649      H3655   1.082       .  S
O3650      C3651   1.332       .  A
C3651      C3652   1.390       .  A
C3652      H3656   1.083       .  S
C3657      C3662   1.380       .  A
C3657      C3658   1.403       .  A
C3657      O3663   1.313       .  A
C3658      C3659   1.399       .  A
C3658      H3669   1.082       .  S
C3659      C3668   1.365       .  A
C3659      C3660   1.381       .  A
C3660      C3661   1.400       .  A
C3660      O3666   1.310       .  A
C3661      C3662   1.397       .  A
C3661      H3670   1.082       .  S
C3662      C3665   1.362       .  A
O3663      C3664   1.331       .  A
C3664      C3665   1.388       .  A
C3665      H3671   1.082       .  S
O3666      C3667   1.329       .  A
C3667      C3668   1.389       .  A
C3668      H3672   1.082       .  S
C3673      C3678   1.380       .  A
C3673      C3674   1.407       .  A
C3673      O3679   1.322       .  A
C3674      C3675   1.406       .  A
C3674      H3685   1.082       .  S
C3675      C3684   1.366       .  A
C3675      C3676   1.380       .  A
C3676      C3677   1.405       .  A
C3676      O3682   1.320       .  A
C3677      C3678   1.404       .  A
C3677      H3686   1.082       .  S
C3678      C3681   1.363       .  A
O3679      C3680   1.333       .  A
C3680      C3681   1.391       .  A
C3681      H3687   1.082       .  S
O3682      C3683   1.332       .  A
C3683      C3684   1.393       .  A
C3684      H3688   1.082       .  S
C3689      C3694   1.380       .  A
C3689      C3690   1.403       .  A
C3689      O3695   1.318       .  A
C3690      C3691   1.402       .  A
C3690      H3701   1.082       .  S
C3691      C3700   1.361       .  A
C3691      C3692   1.380       .  A
C3692      C3693   1.408       .  A
C3692      O3698   1.322       .  A
C3693      C3694   1.407       .  A
C3693      H3702   1.082       .  S
C3694      C3697   1.369       .  A
O3695      C3696   1.332       .  A
C3696      C3697   1.393       .  A
C3697      H3703   1.082       .  S
O3698      C3699   1.333       .  A
C3699      C3700   1.391       .  A
C3700      H3704   1.083       .  S
C3705      C3710   1.381       .  A
C3705      C3706   1.403       .  A
C3705      O3711   1.322       .  A
C3706      C3707   1.404       .  A
C3706      H3717   1.082       .  S
C3707      C3716   1.357       .  A
C3707      C3708   1.381       .  A
C3708      C3709   1.399       .  A
C3708      O3714   1.318       .  A
C3709      C3710   1.400       .  A
C3709      H3718   1.082       .  S
C3710      C3713   1.353       .  A
O3711      C3712   1.331       .  A
C3712      C3713   1.392       .  A
C3713      H3719   1.083       .  S
O3714      C3715   1.328       .  A
C3715      C3716   1.393       .  A
C3716      H3720   1.083       .  S
C3721      C3726   1.380       .  A
C3721      C3722   1.405       .  A
C3721      O3727   1.321       .  A
C3722      C3723   1.405       .  A
C3722      H3733   1.082       .  S
C3723      C3732   1.364       .  A
C3723      C3724   1.380   1_556  A
C3724      C3725   1.404       .  A
C3724      O3730   1.319       .  A
C3725      C3726   1.403   1_554  A
C3725      H3734   1.082       .  S
C3726      C3729   1.362       .  A
O3727      C3728   1.332       .  A
C3728      C3729   1.392       .  A
C3729      H3735   1.083   1_556  S
O3730      C3731   1.331       .  A
C3731      C3732   1.392   1_554  A
C3732      H3736   1.082       .  S
C3737      C3742   1.380   1_554  A
C3737      C3738   1.410       .  A
C3737      O3743   1.325       .  A
C3738      C3739   1.409       .  A
C3738      H3749   1.082       .  S
C3739      C3748   1.368       .  A
C3739      C3740   1.380       .  A
C3740      C3741   1.403   1_554  A
C3740      O3746   1.319       .  A
C3741      C3742   1.402       .  A
C3741      H3750   1.082       .  S
C3742      C3745   1.361       .  A
O3743      C3744   1.334   1_554  A
C3744      C3745   1.391       .  A
C3745      H3751   1.083       .  S
O3746      C3747   1.331       .  A
C3747      C3748   1.395       .  A
C3748      H3752   1.082       .  S
C3753      C3758   1.380       .  A
C3753      C3754   1.402       .  A
C3753      O3759   1.318       .  A
C3754      C3755   1.401       .  A
C3754      H3765   1.082       .  S
C3755      C3764   1.359       .  A
C3755      C3756   1.380       .  A
C3756      C3757   1.408       .  A
C3756      O3762   1.324       .  A
C3757      C3758   1.408       .  A
C3757      H3766   1.082       .  S
C3758      C3761   1.367       .  A
O3759      C3760   1.330       .  A
C3760      C3761   1.396       .  A
C3761      H3767   1.083       .  S
O3762      C3763   1.333       .  A
C3763      C3764   1.389       .  A
C3764      H3768   1.083       .  S
C3769      C3774   1.381       .  A
C3769      C3770   1.401       .  A
C3769      O3775   1.322       .  A
C3770      C3771   1.403       .  A
C3770      H3781   1.082       .  S
C3771      C3780   1.354       .  A
C3771      C3772   1.381       .  A
C3772      C3773   1.399       .  A
C3772      O3778   1.321       .  A
C3773      C3774   1.401       .  A
C3773      H3782   1.082       .  S
C3774      C3777   1.352       .  A
O3775      C3776   1.330       .  A
C3776      C3777   1.392       .  A
C3777      H3783   1.083       .  S
O3778      C3779   1.329       .  A
C3779      C3780   1.394       .  A
C3780      H3784   1.083       .  S
C3785      C3790   1.380       .  A
C3785      C3786   1.404       .  A
C3785      O3791   1.312       .  A
C3786      C3787   1.400       .  A
C3786      H3797   1.082       .  S
C3787      C3796   1.368       .  A
C3787      C3788   1.380       .  A
C3788      C3789   1.402       .  A
C3788      O3794   1.311       .  A
C3789      C3790   1.397       .  A
C3789      H3798   1.082       .  S
C3790      C3793   1.364       .  A
O3791      C3792   1.331       .  A
C3792      C3793   1.388       .  A
C3793      H3799   1.082       .  S
O3794      C3795   1.331       .  A
C3795      C3796   1.390       .  A
C3796      H3800   1.082       .  S
C3801      C3806   1.381       .  A
C3801      C3802   1.403       .  A
C3801      O3807   1.319       .  A
C3802      C3803   1.402       .  A
C3802      H3813   1.082       .  S
C3803      C3812   1.361       .  A
C3803      C3804   1.380       .  A
C3804      C3805   1.405       .  A
C3804      O3810   1.320       .  A
C3805      C3806   1.404       .  A
C3805      H3814   1.082       .  S
C3806      C3809   1.363       .  A
O3807      C3808   1.330       .  A
C3808      C3809   1.392       .  A
C3809      H3815   1.083       .  S
O3810      C3811   1.332       .  A
C3811      C3812   1.390       .  A
C3812      H3816   1.082       .  S
C3817      C3822   1.380       .  A
C3817      C3818   1.403       .  A
C3817      O3823   1.320       .  A
C3818      C3819   1.402       .  A
C3818      H3829   1.082       .  S
C3819      C3828   1.361       .  A
C3819      C3820   1.380       .  A
C3820      C3821   1.407       .  A
C3820      O3826   1.322       .  A
C3821      C3822   1.407       .  A
C3821      H3830   1.082       .  S
C3822      C3825   1.366       .  A
O3823      C3824   1.331       .  A
C3824      C3825   1.394       .  A
C3825      H3831   1.082       .  S
O3826      C3827   1.333       .  A
C3827      C3828   1.390       .  A
C3828      H3832   1.082       .  S
C3833      C3838   1.381       .  A
C3833      C3834   1.401   1_655  A
C3833      O3839   1.321       .  A
C3834      C3835   1.402       .  A
C3834      H3845   1.082       .  S
C3835      C3844   1.354       .  A
C3835      C3836   1.381   1_455  A
C3836      C3837   1.401       .  A
C3836      O3842   1.321   1_655  A
C3837      C3838   1.403       .  A
C3837      H3846   1.082       .  S
C3838      C3841   1.355       .  A
O3839      C3840   1.330       .  A
C3840      C3841   1.393       .  A
C3841      H3847   1.083       .  S
O3842      C3843   1.330       .  A
C3843      C3844   1.393       .  A
C3844      H3848   1.083       .  S
C3849      C3854   1.380       .  A
C3849      C3850   1.406       .  A
C3849      O3855   1.322       .  A
C3850      C3851   1.405       .  A
C3850      H3861   1.082       .  S
C3851      C3860   1.364       .  A
C3851      C3852   1.381       .  A
C3852      C3853   1.404       .  A
C3852      O3858   1.319       .  A
C3853      C3854   1.403       .  A
C3853      H3862   1.082       .  S
C3854      C3857   1.362       .  A
O3855      C3856   1.332       .  A
C3856      C3857   1.392       .  A
C3857      H3863   1.083       .  S
O3858      C3859   1.330       .  A
C3859      C3860   1.392       .  A
C3860      H3864   1.083       .  S
C3865      C3870   1.381       .  A
C3865      C3866   1.405       .  A
C3865      O3871   1.322       .  A
C3866      C3867   1.405       .  A
C3866      H3877   1.082       .  S
C3867      C3876   1.363       .  A
C3867      C3868   1.381       .  A
C3868      C3869   1.401       .  A
C3868      O3874   1.318       .  A
C3869      C3870   1.401       .  A
C3869      H3878   1.082       .  S
C3870      C3873   1.357       .  A
O3871      C3872   1.332       .  A
C3872      C3873   1.390       .  A
C3873      H3879   1.083       .  S
O3874      C3875   1.330       .  A
C3875      C3876   1.391       .  A
C3876      H3880   1.082       .  S
C3881      C3886   1.379       .  A
C3881      C3882   1.411       .  A
C3881      O3887   1.324       .  A
C3882      C3883   1.410       .  A
C3882      H3893   1.082       .  S
C3883      C3892   1.374       .  A
C3883      C3884   1.380       .  A
C3884      C3885   1.402       .  A
C3884      O3890   1.316       .  A
C3885      C3886   1.400       .  A
C3885      H3894   1.082       .  S
C3886      C3889   1.362       .  A
O3887      C3888   1.335       .  A
C3888      C3889   1.389       .  A
C3889      H3895   1.083       .  S
O3890      C3891   1.330       .  A
C3891      C3892   1.395       .  A
C3892      H3896   1.082       .  S
C3897      C3902   1.381       .  A
C3897      C3898   1.400       .  A
C3897      O3903   1.317       .  A
C3898      C3899   1.400       .  A
C3898      H3909   1.082       .  S
C3899      C3908   1.356   1_655  A
C3899      C3900   1.380   1_655  A
C3900      C3901   1.407   1_455  A
C3900      O3906   1.323       .  A
C3901      C3902   1.407       .  A
C3901      H3910   1.082       .  S
C3902      C3905   1.365       .  A
O3903      C3904   1.329       .  A
C3904      C3905   1.394       .  A
C3905      H3911   1.082       .  S
O3906      C3907   1.332       .  A
C3907      C3908   1.388       .  A
C3908      H3912   1.083       .  S
C3913      C3918   1.380   1_554  A
C3913      C3914   1.402       .  A
C3913      O3919   1.313   1_554  A
C3914      C3915   1.399   1_655  A
C3914      H3925   1.082       .  S
C3915      C3924   1.364       .  A
C3915      C3916   1.380       .  A
C3916      C3917   1.404   1_554  A
C3916      O3922   1.314       .  A
C3917      C3918   1.401   1_455  A
C3917      H3926   1.082       .  S
C3918      C3921   1.365       .  A
O3919      C3920   1.330       .  A
C3920      C3921   1.391       .  A
C3921      H3927   1.083       .  S
O3922      C3923   1.331       .  A
C3923      C3924   1.389       .  A
C3924      H3928   1.082       .  S
C3929      C3934   1.381   1_655  A
C3929      C3930   1.401       .  A
C3929      O3935   1.324       .  A
C3930      C3931   1.404       .  A
C3930      H3941   1.082       .  S
C3931      C3940   1.354       .  A
C3931      C3932   1.381       .  A
C3932      C3933   1.401   1_655  A
C3932      O3938   1.323       .  A
C3933      C3934   1.403       .  A
C3933      H3942   1.082       .  S
C3934      C3937   1.352       .  A
O3935      C3936   1.330   1_655  A
C3936      C3937   1.395       .  A
C3937      H3943   1.083       .  S
O3938      C3939   1.330       .  A
C3939      C3940   1.394       .  A
C3940      H3944   1.083       .  S
C3945      C3950   1.381       .  A
C3945      C3946   1.405       .  A
C3945      O3951   1.320       .  A
C3946      C3947   1.405       .  A
C3946      H3957   1.082       .  S
C3947      C3956   1.365       .  A
C3947      C3948   1.380       .  A
C3948      C3949   1.403       .  A
C3948      O3954   1.318       .  A
C3949      C3950   1.402       .  A
C3949      H3958   1.082       .  S
C3950      C3953   1.361       .  A
O3951      C3952   1.331       .  A
C3952      C3953   1.391       .  A
C3953      H3959   1.083       .  S
O3954      C3955   1.331       .  A
C3955      C3956   1.392       .  A
C3956      H3960   1.082       .  S
C3961      C3966   1.380       .  A
C3961      C3962   1.405       .  A
C3961      O3967   1.321       .  A
C3962      C3963   1.404       .  A
C3962      H3973   1.082       .  S
C3963      C3972   1.363       .  A
C3963      C3964   1.380       .  A
C3964      C3965   1.406       .  A
C3964      O3970   1.322       .  A
C3965      C3966   1.406       .  A
C3965      H3974   1.082       .  S
C3966      C3969   1.365       .  A
O3967      C3968   1.332       .  A
C3968      C3969   1.393       .  A
C3969      H3975   1.082       .  S
O3970      C3971   1.332       .  A
C3971      C3972   1.392       .  A
C3972      H3976   1.083       .  S
C3977      C3982   1.380       .  A
C3977      C3978   1.403       .  A
C3977      O3983   1.313       .  A
C3978      C3979   1.399       .  A
C3978      H3989   1.082       .  S
C3979      C3988   1.365       .  A
C3979      C3980   1.380       .  A
C3980      C3981   1.402       .  A
C3980      O3986   1.311       .  A
C3981      C3982   1.398       .  A
C3981      H3990   1.082       .  S
C3982      C3985   1.363       .  A
O3983      C3984   1.331       .  A
C3984      C3985   1.389       .  A
C3985      H3991   1.083       .  S
O3986      C3987   1.331       .  A
C3987      C3988   1.390       .  A
C3988      H3992   1.082       .  S
C3993      C3998   1.379       .  A
C3993      C3994   1.415       .  A
C3993      O3999   1.327       .  A
C3994      C3995   1.413       .  A
C3994      H4005   1.082       .  S
C3995      C4004   1.379       .  A
C3995      C3996   1.380       .  A
C3996      C3997   1.397       .  A
C3996      O4002   1.310       .  A
C3997      C3998   1.395       .  A
C3997      H4006   1.083       .  S
C3998      C4001   1.356       .  A
O3999      C4000   1.336       .  A
C4000      C4001   1.387       .  A
C4001      H4007   1.083       .  S
O4002      C4003   1.328       .  A
C4003      C4004   1.397       .  A
C4004      H4008   1.082       .  S
C4009      C4014   1.379       .  A
C4009      C4010   1.403       .  A
C4009      O4015   1.312       .  A
C4010      C4011   1.400       .  A
C4010      H4021   1.082       .  S
C4011      C4020   1.367       .  A
C4011      C4012   1.380       .  A
C4012      C4013   1.406       .  A
C4012      O4018   1.314       .  A
C4013      C4014   1.402       .  A
C4013      H4022   1.082       .  S
C4014      C4017   1.370       .  A
O4015      C4016   1.331       .  A
C4016      C4017   1.391       .  A
C4017      H4023   1.082       .  S
O4018      C4019   1.332       .  A
C4019      C4020   1.391       .  A
C4020      H4024   1.082       .  S
C4025      C4030   1.381       .  A
C4025      C4026   1.403       .  A
C4025      O4031   1.318       .  A
C4026      C4027   1.401       .  A
C4026      H4037   1.082       .  S
C4027      C4036   1.361       .  A
C4027      C4028   1.380       .  A
C4028      C4029   1.405       .  A
C4028      O4034   1.320       .  A
C4029      C4030   1.405       .  A
C4029      H4038   1.082       .  S
C4030      C4033   1.364       .  A
O4031      C4032   1.331       .  A
C4032      C4033   1.392       .  A
C4033      H4039   1.082       .  S
O4034      C4035   1.331       .  A
C4035      C4036   1.390       .  A
C4036      H4040   1.083       .  S
C4041      C4046   1.380       .  A
C4041      C4042   1.409       .  A
C4041      O4047   1.324       .  A
C4042      C4043   1.408       .  A
C4042      H4053   1.082       .  S
C4043      C4052   1.370       .  A
C4043      C4044   1.380       .  A
C4044      C4045   1.404       .  A
C4044      O4050   1.319       .  A
C4045      C4046   1.403       .  A
C4045      H4054   1.082       .  S
C4046      C4049   1.363       .  A
O4047      C4048   1.334       .  A
C4048      C4049   1.393       .  A
C4049      H4055   1.083       .  S
O4050      C4051   1.332       .  A
C4051      C4052   1.394       .  A
C4052      H4056   1.082       .  S
C4057      C4062   1.380       .  A
C4057      C4058   1.406       .  A
C4057      O4063   1.320       .  A
C4058      C4059   1.405       .  A
C4058      H4069   1.082       .  S
C4059      C4068   1.366       .  A
C4059      C4060   1.380       .  A
C4060      C4061   1.401       .  A
C4060      O4066   1.316       .  A
C4061      C4062   1.400       .  A
C4061      H4070   1.082       .  S
C4062      C4065   1.359       .  A
O4063      C4064   1.333       .  A
C4064      C4065   1.390       .  A
C4065      H4071   1.083       .  S
O4066      C4067   1.329       .  A
C4067      C4068   1.393       .  A
C4068      H4072   1.082       .  S
C4073      C4078   1.380       .  A
C4073      C4074   1.403       .  A
C4073      O4079   1.315       .  A
C4074      C4075   1.401   1_655  A
C4074      H4085   1.083       .  S
C4075      C4084   1.362       .  A
C4075      C4076   1.380       .  A
C4076      C4077   1.409   1_455  A
C4076      O4082   1.321       .  A
C4077      C4078   1.406       .  A
C4077      H4086   1.082       .  S
C4078      C4081   1.371       .  A
O4079      C4080   1.331       .  A
C4080      C4081   1.392       .  A
C4081      H4087   1.082       .  S
O4082      C4083   1.333       .  A
C4083      C4084   1.389       .  A
C4084      H4088   1.083       .  S
C4089      C4094   1.380       .  A
C4089      C4090   1.404       .  A
C4089      O4095   1.314       .  A
C4090      C4091   1.401       .  A
C4090      H4101   1.082       .  S
C4091      C4100   1.365       .  A
C4091      C4092   1.380       .  A
C4092      C4093   1.401       .  A
C4092      O4098   1.312       .  A
C4093      C4094   1.398       .  A
C4093      H4102   1.082       .  S
C4094      C4097   1.362       .  A
O4095      C4096   1.332       .  A
C4096      C4097   1.389       .  A
C4097      H4103   1.082       .  S
O4098      C4099   1.330       .  A
C4099      C4100   1.390       .  A
C4100      H4104   1.082       .  S
