geometry optimzed in LAMMPS
_audit_creation_date              2020-12-01 
_audit_creation_method            'lammps2cif' 
_symmetry_space_group_name_H-M    'P1' 
_symmetry_Int_Tables_number       1 
_symmetry_cell_setting            triclinic 
loop_ 
_symmetry_equiv_pos_as_xyz 
  x,y,z 
_cell_length_a                    39.44960537 
_cell_length_b                    39.482550508765684 
_cell_length_c                    105.31156052894241 
_cell_angle_alpha                 89.83930893830204 
_cell_angle_beta                  90.45319880126814 
_cell_angle_gamma                 120.00487845486391 
loop_ 
_atom_site_label 
_atom_site_type_symbol 
_atom_site_fract_x 
_atom_site_fract_y 
_atom_site_fract_z 
_atom_site_charge 
Zr1        Zr  0.89318490  0.16169209  0.56345075     2.17500
O2          O  0.87810009  0.12099693  0.54453171    -0.51100
O3          O  0.95983050  0.17493127  0.56627350    -0.74300
O4          O  0.92686425  0.20071868  0.54508200    -0.81100
O5          O  0.84922363  0.07606362  0.58571536    -0.82800
O6          O  0.92445718  0.25698195  0.54565780    -0.78500
O7          O  0.88129903  0.09581427  0.56699417    -0.90100
O8          O  0.98604222  0.21540648  0.58324030    -0.76000
O9          O  0.92737830  0.22863547  0.56965450    -0.85500
O10         O  0.90307858  0.16187928  0.58577648    -0.85200
O11         O  0.85168023  0.18747737  0.55723786    -0.72000
O12         O  0.82866584  0.12548692  0.57224382    -0.84100
Zr13       Zr  0.83210982  0.21952834  0.59579993     2.26400
Zr14       Zr  0.88581644  0.25434350  0.56414247     2.06300
Zr15       Zr  0.83908381  0.12706551  0.59467855     2.10000
Zr16       Zr  0.93719772  0.22890022  0.59186452     1.78800
O17         O  0.77394147  0.07067826  0.59746655    -0.92900
O18         O  0.99343174  0.29228786  0.58671165    -0.40700
O19         O  0.87392830  0.19392693  0.60124926    -0.77400
O20         O  0.89656996  0.25630765  0.58669618    -0.96100
O21         O  0.82225178  0.21982800  0.57346432    -0.89400
O22         O  0.79693615  0.15258511  0.58946629    -0.92200
C23         C  0.98800926  0.19534013  0.57400795     1.01600
C24         C  0.86433160  0.07030597  0.57578389     1.14500
C25         C  0.93547387  0.23436210  0.54065760     1.05300
O26         O  0.94110073  0.32024936  0.56180049    -0.94400
O27         O  0.87345932  0.30492637  0.57228661    -0.90100
O28         O  0.84478809  0.28538354  0.59160543    -0.83200
C29         C  0.85871389  0.30999037  0.58245990     1.11900
O30         O  0.76695263  0.11045782  0.54849375    -0.96300
Zr31       Zr  0.78843449  0.15334015  0.56701485     1.88900
O32         O  0.76452447  0.20449912  0.59321580    -0.73000
O33         O  0.85049605  0.26237607  0.54639344    -0.52200
O34         O  0.77055952  0.18030073  0.54901861    -0.96900
O35         O  0.73166349  0.08956152  0.57148211    -0.54100
O36         O  0.74095901  0.16962501  0.57502394    -0.73500
C37         C  0.73787908  0.18763104  0.58467184     0.98800
O38         O  0.83679694  0.25468202  0.61535312    -0.62300
O39         O  0.86458145  0.10181578  0.61106048    -0.57100
O40         O  0.81988427  0.19107687  0.61708252    -0.93800
O41         O  0.82649716  0.13716133  0.61639145    -0.92200
O42         O  0.95667397  0.20434140  0.61010221    -0.92600
O43         O  0.95852787  0.27425549  0.60971563    -0.91400
C44         C  0.82072035  0.16208355  0.62234416     1.17700
H45         H  0.91781647  0.14917541  0.58799453     0.33600
H46         H  0.90958936  0.28303233  0.58966894     0.44500
H47         H  0.77225109  0.13855501  0.59383639     0.38000
H48         H  0.84856415  0.18627322  0.54811390     0.34500
H49         H  0.01595068  0.29232071  0.59094750     0.26300
H50         H  0.83393731  0.27178143  0.55028607     0.32200
H51         H  0.77162377  0.20426021  0.55232908     0.38100
H52         H  0.93482867  0.19566926  0.61617222     0.32600
H53         H  0.84477040  0.07374962  0.61184792     0.31500
H54         H  0.77238025  0.06451508  0.60663673     0.33100
H55         H  0.71808532  0.09398206  0.57860073     0.32100
H56         H  0.93715415  0.28016154  0.61093117     0.36100
H57         H  0.86314082  0.27829923  0.61525541     0.28800
H58         H  0.90370216  0.12537437  0.54151167     0.33100
H59         H  0.73946552  0.10362033  0.54690891     0.35900
H60         H  0.88764418  0.10217345  0.60727073     0.28500
H61         H  0.81824265  0.26450071  0.61434929     0.41400
H62         H  0.95412348  0.32675641  0.57022955     0.31500
H63         H  0.99783931  0.29081648  0.57753512     0.39100
H64         H  0.74269542  0.07409839  0.57522457     0.30900
H65         H  0.87069963  0.28529564  0.54170351     0.31000
H66         H  0.86950477  0.13330536  0.53802071     0.31300
Zr67       Zr  0.15780631  0.28656069  0.44034114     2.17500
O68         O  0.17975833  0.26161402  0.45783065    -0.51100
O69         O  0.09178358  0.23228795  0.43787702    -0.74300
O70         O  0.12214428  0.28793105  0.45903212    -0.81100
O71         O  0.20339707  0.24928758  0.41644728    -0.82800
O72         O  0.12011724  0.34439536  0.45853342    -0.78500
O73         O  0.17078829  0.23415527  0.43513572    -0.90100
O74         O  0.06298782  0.24802031  0.42188794    -0.76000
O75         O  0.12167233  0.31802177  0.43505817    -0.85500
O76         O  0.14693789  0.27919325  0.41799064    -0.85200
O77         O  0.19779383  0.35327476  0.44716332    -0.72000
O78         O  0.22145527  0.31718650  0.43087895    -0.84100
Zr79       Zr  0.21431030  0.40883178  0.40918857     2.26400
Zr80       Zr  0.16149843  0.38475468  0.44116440     2.06300
Zr81       Zr  0.21019872  0.31050625  0.40846689     2.10000
Zr82       Zr  0.11075859  0.31080728  0.41289824     1.78800
O83         O  0.27646132  0.32241106  0.40557771    -0.92900
O84         O  0.05634379  0.32057887  0.41834210    -0.40700
O85         O  0.17356322  0.34180802  0.40308668    -0.77400
O86         O  0.15018578  0.37862120  0.41861458    -0.96100
O87         O  0.22468989  0.41612102  0.43154347    -0.89400
O88         O  0.25110100  0.37769870  0.41439067    -0.92200
C89         C  0.06262220  0.22523095  0.43068592     1.01600
C90         C  0.18823350  0.22705018  0.42614516     1.14500
C91         C  0.11074589  0.31093782  0.46342226     1.05300
O92         O  0.10467118  0.39286005  0.44369484    -0.94400
O93         O  0.17484759  0.44958533  0.43475407    -0.90100
O94         O  0.20467356  0.46261808  0.41555407    -0.83200
C95         C  0.19100950  0.47181835  0.42512342     1.11900
O96         O  0.28180147  0.35952064  0.45455538    -0.96300
Zr97       Zr  0.26047512  0.38448298  0.43689829     1.88900
O98         O  0.28265654  0.46059796  0.41113278    -0.73000
O99         O  0.19567949  0.42398245  0.45978077    -0.52200
O100        O  0.27875714  0.42766231  0.45525467    -0.96900
O101        O  0.31890378  0.38034147  0.43253181    -0.54100
O102        O  0.30711880  0.44905149  0.42914773    -0.73500
C103        C  0.30969501  0.47026231  0.41955536     0.98800
O104        O  0.20523302  0.44226396  0.39107768    -0.62300
O105        O  0.18367001  0.26066452  0.39187133    -0.57100
O106        O  0.22394593  0.39497124  0.38730467    -0.93800
O107        O  0.22190878  0.33633483  0.38694543    -0.92200
O108        O  0.08904994  0.26523227  0.39512553    -0.92600
O109        O  0.08894250  0.33380973  0.39484021    -0.91400
C110        C  0.22514349  0.36695386  0.38150393     1.17700
H111        H  0.13252964  0.25193965  0.41557715     0.33600
H112        H  0.13669582  0.39230961  0.41603676     0.44500
H113        H  0.27555472  0.38941146  0.40986575     0.38000
H114        H  0.20128273  0.35427347  0.45627513     0.34500
H115        H  0.03267721  0.29648486  0.41541629     0.26300
H116        H  0.18961441  0.44547145  0.45981363     0.32200
H117        H  0.30756841  0.44436050  0.45475652     0.38100
H118        H  0.11212975  0.27533912  0.38951820     0.32600
H119        H  0.20289299  0.25168885  0.39096621     0.31500
H120        H  0.27376560  0.30280201  0.39921442     0.33100
H121        H  0.34003816  0.40208357  0.43745685     0.32100
H122        H  0.11223200  0.35888916  0.39244200     0.36100
H123        H  0.18018595  0.44166661  0.39257066     0.28800
H124        H  0.15665875  0.23629039  0.46012735     0.33100
H125        H  0.25764250  0.33613165  0.45750039     0.35900
H126        H  0.16029249  0.23814258  0.39561591     0.28500
H127        H  0.22572241  0.47010254  0.39193055     0.41400
H128        H  0.11017502  0.40865859  0.45152453     0.31500
H129        H  0.05500656  0.31901973  0.42772573     0.39100
H130        H  0.32532349  0.38845447  0.42356444     0.30900
H131        H  0.18142968  0.40767026  0.46717814     0.31000
H132        H  0.18397757  0.27919282  0.46507976     0.31300
Zr133      Zr  0.17017060  0.88528596  0.44351740     2.17500
O134        O  0.13546061  0.86993113  0.46365511    -0.51100
O135        O  0.18172588  0.95119672  0.44006602    -0.74300
O136        O  0.21440467  0.92192744  0.46062098    -0.81100
O137        O  0.07685365  0.83580094  0.42424296    -0.82800
O138        O  0.27022603  0.91937803  0.45826647    -0.78500
O139        O  0.10399532  0.87441804  0.44161996    -0.90100
O140        O  0.21388295  0.97210071  0.42132569    -0.76000
O141        O  0.23542760  0.91783046  0.43558811    -0.85500
O142        O  0.16429122  0.89160299  0.42129145    -0.85200
O143        O  0.19670089  0.84389292  0.44901699    -0.72000
O144        O  0.13043245  0.81984539  0.43564727    -0.84100
Zr145      Zr  0.21724305  0.81749767  0.40992394     2.26400
Zr146      Zr  0.26130795  0.87594131  0.44038361     2.06300
Zr147      Zr  0.12601361  0.82678985  0.41330305     2.10000
Zr148      Zr  0.22938083  0.92391586  0.41343554     1.78800
O149        O  0.06841381  0.76226524  0.41079051    -0.92900
O150        O  0.29311797  0.98101320  0.41787864    -0.40700
O151        O  0.19111916  0.85933281  0.40512670    -0.77400
O152        O  0.25736714  0.88335683  0.41784699    -0.96100
O153        O  0.22317321  0.81094036  0.43223897    -0.89400
O154        O  0.15186933  0.78452094  0.41782580    -0.92200
C155        C  0.19728938  0.97640484  0.43112095     1.01600
C156        C  0.07541138  0.85497685  0.43387617     1.14500
C157        C  0.24930676  0.93122028  0.46398542     1.05300
O158        O  0.33003980  0.92508335  0.44311196    -0.94400
O159        O  0.31006167  0.86443982  0.43036981    -0.90100
O160        O  0.28389293  0.82909529  0.41234525    -0.83200
C161        C  0.31179686  0.84645737  0.42047151     1.11900
O162        O  0.11666545  0.76304040  0.45882369    -0.96300
Zr163      Zr  0.15824139  0.77939450  0.44021372     1.88900
O164        O  0.20003834  0.74950918  0.41293936    -0.73000
O165        O  0.26970841  0.83921801  0.45750153    -0.52200
O166        O  0.18034537  0.75984760  0.45904855    -0.96900
O167        O  0.09495752  0.72092578  0.43633811    -0.54100
O168        O  0.17553687  0.73220394  0.43278430    -0.73500
C169        C  0.18840446  0.72600638  0.42242298     0.98800
O170        O  0.24633451  0.81499627  0.38982658    -0.62300
O171        O  0.09830481  0.85554003  0.39900049    -0.57100
O172        O  0.18463356  0.80668562  0.38923943    -0.93800
O173        O  0.13081031  0.81293040  0.39126159    -0.92200
O174        O  0.20376363  0.94132765  0.39497954    -0.92600
O175        O  0.27189327  0.94316676  0.39499962    -0.91400
C176        C  0.15466285  0.80739329  0.38461384     1.17700
H177        H  0.15108159  0.90607155  0.41943620     0.33600
H178        H  0.28309603  0.89555783  0.41411152     0.44500
H179        H  0.13646909  0.75939643  0.41376155     0.38000
H180        H  0.19805814  0.84217197  0.45814094     0.34500
H181        H  0.28785210  0.99837690  0.42325128     0.26300
H182        H  0.28050197  0.82424621  0.45332172     0.32200
H183        H  0.20769350  0.76703315  0.45721178     0.38100
H184        H  0.17509106  0.92355921  0.39532291     0.32600
H185        H  0.06977811  0.83685053  0.39894106     0.31500
H186        H  0.06030130  0.75292376  0.41957992     0.33100
H187        H  0.09324500  0.70202656  0.44286084     0.32100
H188        H  0.27076206  0.91874047  0.39214758     0.36100
H189        H  0.27068951  0.84059136  0.38903700     0.28800
H190        H  0.14181235  0.89547817  0.46736583     0.33100
H191        H  0.11057783  0.78443745  0.45950841     0.35900
H192        H  0.10115230  0.87891939  0.40342590     0.28500
H193        H  0.25505593  0.79563336  0.39100311     0.41400
H194        H  0.33539622  0.94496634  0.43651200     0.31500
H195        H  0.30617586  0.97130230  0.42367977     0.39100
H196        H  0.09776681  0.70982332  0.42826528     0.30900
H197        H  0.29181160  0.85924474  0.46261080     0.31000
H198        H  0.14898855  0.86006832  0.46921283     0.31300
Zr199      Zr  0.30109763  0.15720263  0.56186399     2.17500
O200        O  0.27432792  0.17501132  0.54382589    -0.51100
O201        O  0.24718911  0.09081288  0.56475313    -0.74300
O202        O  0.30686099  0.12280836  0.54346587    -0.81100
O203        O  0.26442979  0.21048345  0.58282415    -0.82800
O204        O  0.36334253  0.12102328  0.54563246    -0.78500
O205        O  0.24753059  0.17002205  0.56575253    -0.90100
O206        O  0.26049264  0.06691474  0.58257048    -0.76000
O207        O  0.33117972  0.12156595  0.56938295    -0.85500
O208        O  0.29202836  0.15171452  0.58422284    -0.85200
O209        O  0.36891106  0.19562135  0.55590832    -0.72000
O210        O  0.33232193  0.22310027  0.56976099    -0.84100
Zr211      Zr  0.42158251  0.21961244  0.59447252     2.26400
Zr212      Zr  0.39877536  0.15988632  0.56403621     2.06300
Zr213      Zr  0.32388935  0.21705778  0.59217560     2.10000
Zr214      Zr  0.32222823  0.11629984  0.59165815     1.78800
O215        O  0.33702323  0.28415508  0.59330940    -0.92900
O216        O  0.33066631  0.05969687  0.58898990    -0.40700
O217        O  0.35378453  0.18124847  0.60001897    -0.77400
O218        O  0.39046984  0.15346753  0.58659262    -0.96100
O219        O  0.43071701  0.22526260  0.57209580    -0.89400
O220        O  0.39183811  0.25584531  0.58713423    -0.92200
C221        C  0.23881450  0.06380519  0.57298956     1.01600
C222        C  0.24134475  0.19120233  0.57362459     1.14500
C223        C  0.33123923  0.11222759  0.53979799     1.05300
O224        O  0.40233498  0.10004484  0.56376342    -0.94400
O225        O  0.46141467  0.17107149  0.57208387    -0.90100
O226        O  0.47421383  0.20602848  0.59037887    -0.83200
C227        C  0.48301839  0.18891707  0.58174367     1.11900
O228        O  0.37402741  0.27869526  0.54657714    -0.96300
Zr229      Zr  0.40046476  0.26071352  0.56470634     1.88900
O230        O  0.47510031  0.28663717  0.59158996    -0.73000
O231        O  0.44283157  0.18956476  0.54619596    -0.52200
O232        O  0.44312060  0.27607447  0.54641185    -0.96900
O233        O  0.39681405  0.31997610  0.56785045    -0.54100
O234        O  0.46481491  0.30882078  0.57291202    -0.73500
C235        C  0.48579367  0.31251547  0.58276806     0.98800
O236        O  0.45547052  0.20963492  0.61232649    -0.62300
O237        O  0.27225980  0.19501275  0.60797895    -0.57100
O238        O  0.40718561  0.23822622  0.61504055    -0.93800
O239        O  0.34655192  0.23157353  0.61383218    -0.92200
O240        O  0.27334303  0.09851254  0.60817787    -0.92600
O241        O  0.34185506  0.09940820  0.61158253    -0.91400
C242        C  0.37747525  0.23828766  0.61994536     1.17700
H243        H  0.26457898  0.13824607  0.58635155     0.33600
H244        H  0.40337130  0.14014002  0.59006612     0.44500
H245        H  0.40350199  0.28110710  0.59122931     0.38000
H246        H  0.37102323  0.19724783  0.54676776     0.34500
H247        H  0.30879309  0.03848554  0.59376594     0.26300
H248        H  0.46658233  0.21194005  0.54992334     0.32200
H249        H  0.44958894  0.30277827  0.54384784     0.38100
H250        H  0.28055129  0.12348688  0.61250142     0.32600
H251        H  0.26431212  0.21516050  0.60803560     0.31500
H252        H  0.32724622  0.28613827  0.60174518     0.33100
H253        H  0.41897607  0.34033060  0.56293087     0.32100
H254        H  0.36008244  0.12490894  0.61556982     0.36100
H255        H  0.47039209  0.23532794  0.61661866     0.28800
H256        H  0.25092110  0.15032957  0.54114653     0.33100
H257        H  0.35656064  0.25365371  0.54220807     0.35900
H258        H  0.24956710  0.17148713  0.60428642     0.28500
H259        H  0.43482423  0.19264431  0.61839253     0.41400
H260        H  0.40149484  0.09274789  0.57280529     0.31500
H261        H  0.32404163  0.05212550  0.57996475     0.39100
H262        H  0.40438325  0.32758667  0.57681877     0.30900
H263        H  0.45107656  0.17043706  0.54393950     0.31000
H264        H  0.29352070  0.18171898  0.53692850     0.31300
Zr265      Zr  0.75115993  0.87269637  0.44130804     2.17500
O266        O  0.77525083  0.90907080  0.46112825    -0.51100
O267        O  0.80685446  0.86356497  0.43765603    -0.74300
O268        O  0.74696881  0.82961920  0.45858034    -0.81100
O269        O  0.78760576  0.96343714  0.42048514    -0.82800
O270        O  0.68785726  0.77343027  0.45749483    -0.78500
O271        O  0.80139417  0.94145694  0.43861158    -0.90100
O272        O  0.79104363  0.82269447  0.42079902    -0.76000
O273        O  0.71895359  0.80668118  0.43407426    -0.85500
O274        O  0.76049350  0.87550776  0.41895464    -0.85200
O275        O  0.68353902  0.84479377  0.44729157    -0.72000
O276        O  0.72126393  0.90831181  0.43313030    -0.84100
Zr277      Zr  0.63042916  0.81701095  0.40865692     2.26400
Zr278      Zr  0.65152046  0.77883304  0.43943313     2.06300
Zr279      Zr  0.72979115  0.90991735  0.41065386     2.10000
Zr280      Zr  0.72827621  0.80953312  0.41185860     1.78800
O281        O  0.72094878  0.96623773  0.40776502    -0.92900
O282        O  0.72235730  0.74567357  0.41513106    -0.40700
O283        O  0.69798662  0.84399378  0.40315156    -0.77400
O284        O  0.65985631  0.78038642  0.41686108    -0.96100
O285        O  0.62148634  0.81385165  0.43102752    -0.89400
O286        O  0.66218556  0.88303552  0.41585796    -0.92200
C287        C  0.81442593  0.84354672  0.42975878     1.01600
C288        C  0.80867170  0.96854828  0.43041131     1.14500
C289        C  0.72174408  0.79541320  0.46256257     1.05300
O290        O  0.64368574  0.71361293  0.43911500    -0.94400
O291        O  0.58691523  0.72993547  0.43156977    -0.90100
O292        O  0.57375770  0.75390002  0.41373278    -0.83200
C293        C  0.56453964  0.72750449  0.42224526     1.11900
O294        O  0.67302870  0.91881760  0.45762761    -0.96300
Zr295      Zr  0.65336685  0.87948771  0.43829415     1.88900
O296        O  0.57983871  0.83499833  0.41090451    -0.73000
O297        O  0.60991515  0.76676535  0.45781146    -0.52200
O298        O  0.60678172  0.84906554  0.45551446    -0.96900
O299        O  0.66509077  0.94573180  0.43518652    -0.54100
O300        O  0.59093561  0.86728588  0.42963215    -0.73500
C301        C  0.57042599  0.85155905  0.41957563     0.98800
O302        O  0.59832521  0.77471037  0.39042890    -0.62300
O303        O  0.78380377  0.93454061  0.39563607    -0.57100
O304        O  0.64475201  0.84906536  0.38780104    -0.93800
O305        O  0.70533062  0.90267654  0.38908983    -0.92200
O306        O  0.77183311  0.83911345  0.39388677    -0.92600
O307        O  0.70560981  0.76748673  0.39318226    -0.91400
C308        C  0.67432442  0.87903992  0.38283723     1.17700
H309        H  0.78791481  0.88898740  0.41681567     0.33600
H310        H  0.64609349  0.75406260  0.41352028     0.44500
H311        H  0.65149709  0.89756757  0.41174169     0.38000
H312        H  0.68160957  0.84459248  0.45643380     0.34500
H313        H  0.74759101  0.74875187  0.41225967     0.26300
H314        H  0.58462572  0.76205495  0.45424218     0.32200
H315        H  0.58337224  0.82701698  0.45151081     0.38100
H316        H  0.76040662  0.85253837  0.38902125     0.32600
H317        H  0.78875002  0.96088493  0.39323624     0.31500
H318        H  0.73466329  0.97842400  0.39975611     0.33100
H319        H  0.65518678  0.94594653  0.42654038     0.32100
H320        H  0.68020693  0.76543629  0.39096333     0.36100
H321        H  0.59815435  0.74992616  0.39209442     0.28800
H322        H  0.79410129  0.90178412  0.46463041     0.33100
H323        H  0.65186350  0.92473043  0.45932884     0.35900
H324        H  0.80721819  0.93944736  0.40061830     0.28500
H325        H  0.57054988  0.76797435  0.39067738     0.41400
H326        H  0.62429951  0.69904320  0.44582011     0.31500
H327        H  0.72281466  0.74287920  0.42446785     0.39100
H328        H  0.69389047  0.96221202  0.43452116     0.30900
H329        H  0.60435675  0.74088401  0.46100164     0.31000
H330        H  0.75267387  0.89708324  0.46695883     0.31300
Zr331      Zr  0.88800049  0.74889613  0.56405780     2.17500
O332        O  0.92753729  0.77893750  0.54525401    -0.51100
O333        O  0.87458957  0.80197968  0.56722884    -0.74300
O334        O  0.84721623  0.73899370  0.54525326    -0.81100
O335        O  0.97928727  0.78923867  0.58487197    -0.82800
O336        O  0.79098987  0.68107336  0.54703350    -0.78500
O337        O  0.95525910  0.80183896  0.56692844    -0.90100
O338        O  0.84195105  0.79177152  0.58577721    -0.76000
O339        O  0.82247901  0.71739473  0.57162158    -0.85500
O340        O  0.89288533  0.75975994  0.58641702    -0.85200
O341        O  0.86088545  0.68109455  0.55844652    -0.72000
O342        O  0.92582078  0.72106881  0.57217170    -0.84100
Zr343      Zr  0.83560532  0.63085720  0.59713546     2.26400
Zr344      Zr  0.79537159  0.64965018  0.56649275     2.06300
Zr345      Zr  0.92857054  0.73014493  0.59464010     2.10000
Zr346      Zr  0.82737904  0.72801952  0.59390056     1.78800
O347        O  0.98371560  0.71884379  0.59654581    -0.92900
O348        O  0.76388441  0.72327967  0.59086209    -0.40700
O349        O  0.86300015  0.69873983  0.60216243    -0.77400
O350        O  0.79787722  0.65934413  0.58905746    -0.96100
O351        O  0.83162418  0.62072145  0.57478930    -0.89400
O352        O  0.90164653  0.66213829  0.58994112    -0.92200
C353        C  0.85842682  0.81202316  0.57579956     1.01600
C354        C  0.98273978  0.80999572  0.57508243     1.14500
C355        C  0.81318392  0.71307176  0.54111217     1.05300
O356        O  0.73220707  0.64640495  0.56537810    -0.94400
O357        O  0.74485117  0.58755829  0.57524370    -0.90100
O358        O  0.76916849  0.57708244  0.59354157    -0.83200
C359        C  0.74213350  0.56723569  0.58513971     1.11900
O360        O  0.93559687  0.67564813  0.54813540    -0.96300
Zr361      Zr  0.89733399  0.65293096  0.56751723     1.88900
O362        O  0.85334551  0.58018477  0.59452819    -0.73000
O363        O  0.78000334  0.60218231  0.54956945    -0.52200
O364        O  0.87316507  0.60436050  0.55060021    -0.96900
O365        O  0.96264007  0.66405780  0.57238770    -0.54100
O366        O  0.88458510  0.59044471  0.57571632    -0.73500
C367        C  0.86907943  0.57026364  0.58574470     0.98800
O368        O  0.80306488  0.59551496  0.61644327    -0.62300
O369        O  0.95937991  0.78278948  0.61022232    -0.57100
O370        O  0.86460670  0.65120948  0.61830400    -0.93800
O371        O  0.91966913  0.71088653  0.61668226    -0.92200
O372        O  0.85531622  0.77008723  0.61243451    -0.92600
O373        O  0.78694766  0.70369398  0.61279581    -0.91400
C374        C  0.89429314  0.68161867  0.62307040     1.17700
H375        H  0.90648766  0.78732577  0.58843431     0.33600
H376        H  0.77180857  0.64603224  0.59253179     0.44500
H377        H  0.91637422  0.65159865  0.59403164     0.38000
H378        H  0.86032064  0.67835554  0.54932257     0.34500
H379        H  0.76442227  0.74337710  0.59659904     0.26300
H380        H  0.78273083  0.58090562  0.55354495     0.32200
H381        H  0.85411411  0.60897119  0.54584284     0.38100
H382        H  0.88311090  0.77690469  0.61261610     0.32600
H383        H  0.98767251  0.79156792  0.60991314     0.31500
H384        H  0.98094922  0.70702292  0.60505099     0.33100
H385        H  0.98077823  0.69114921  0.56956660     0.32100
H386        H  0.79370827  0.68477932  0.61654970     0.36100
H387        H  0.77832820  0.59616620  0.61690842     0.28800
H388        H  0.91955774  0.79764538  0.54214978     0.33100
H389        H  0.94513697  0.70409227  0.54791245     0.35900
H390        H  0.95713351  0.80479605  0.60663273     0.28500
H391        H  0.79503967  0.56777896  0.61484860     0.41400
H392        H  0.73492374  0.66740778  0.57112925     0.31500
H393        H  0.76489486  0.73371662  0.58222732     0.39100
H394        H  0.96668037  0.64728803  0.56632970     0.30900
H395        H  0.75149575  0.59060915  0.54812498     0.31000
H396        H  0.91775474  0.75802492  0.53874855     0.31300
Zr397      Zr  0.06329869  0.56826331  0.10823202     2.17500
O398        O  0.08860211  0.61138622  0.12659886    -0.51100
O399        O  0.11575985  0.55444623  0.10459793    -0.74300
O400        O  0.05897680  0.52964646  0.12681189    -0.81100
O401        O  0.10565237  0.65569487  0.08688426    -0.82800
O402        O  0.00063693  0.47295597  0.12514694    -0.78500
O403        O  0.11997140  0.63166291  0.10447305    -0.90100
O404        O  0.09886261  0.51428972  0.08749159    -0.76000
O405        O  0.03007580  0.50200241  0.10128462    -0.85500
O406        O  0.07142265  0.57013744  0.08583058    -0.85200
O407        O  0.99646303  0.54277350  0.11449473    -0.72000
O408        O  0.03569578  0.60611755  0.10011668    -0.84100
Zr409      Zr  0.94278578  0.51546680  0.07587176     2.26400
Zr410      Zr  0.96332119  0.47666074  0.10695946     2.06300
Zr411      Zr  0.04328846  0.60692198  0.07762126     2.10000
Zr412      Zr  0.03744839  0.50388610  0.07894122     1.78800
O413        O  0.03332686  0.66278616  0.07548632    -0.92900
O414        O  0.02503084  0.43751422  0.08220915    -0.40700
O415        O  0.00979840  0.54062076  0.07044738    -0.77400
O416        O  0.96982989  0.47698144  0.08428910    -0.96100
O417        O  0.93483924  0.51304080  0.09833590    -0.89400
O418        O  0.97574625  0.58205235  0.08285032    -0.92200
C419        C  0.12215982  0.53393852  0.09659097     1.01600
C420        C  0.12827292  0.65829070  0.09613623     1.14500
C421        C  0.03376389  0.49528549  0.13066783     1.05300
O422        O  0.95666534  0.41193578  0.10699205    -0.94400
O423        O  0.89826617  0.42874608  0.09937160    -0.90100
O424        O  0.88786517  0.45079275  0.08057989    -0.83200
C425        C  0.87719565  0.42558614  0.08958234     1.11900
O426        O  0.98716138  0.61624330  0.12511912    -0.96300
Zr427      Zr  0.96792504  0.57885799  0.10541305     1.88900
O428        O  0.89483405  0.53702179  0.07809991    -0.73000
O429        O  0.92061716  0.46279820  0.12517000    -0.52200
O430        O  0.92145073  0.54981778  0.12271987    -0.96900
O431        O  0.98312369  0.64650962  0.10341306    -0.54100
O432        O  0.90582158  0.56854972  0.09696549    -0.73500
C433        C  0.88548842  0.55347364  0.08682592     0.98800
O434        O  0.89946446  0.47198351  0.05929813    -0.62300
O435        O  0.09450037  0.63729551  0.06168349    -0.57100
O436        O  0.96416663  0.54119072  0.05411819    -0.93800
O437        O  0.02458180  0.59517625  0.05542293    -0.92200
O438        O  0.08412698  0.53074323  0.06162641    -0.92600
O439        O  0.01558969  0.46564730  0.05944505    -0.91400
C440        C  0.99510665  0.56950906  0.04903971     1.17700
H441        H  0.09872115  0.58251998  0.08353440     0.33600
H442        H  0.95530926  0.45062550  0.08100331     0.44500
H443        H  0.96558309  0.59711665  0.07877723     0.38000
H444        H  0.99496023  0.54309144  0.12364108     0.34500
H445        H  0.04148049  0.43933275  0.08961495     0.26300
H446        H  0.91225612  0.43539478  0.12745854     0.32200
H447        H  0.89843872  0.52683143  0.11891638     0.38100
H448        H  0.07964753  0.55115301  0.05782281     0.32600
H449        H  0.10609552  0.66588174  0.06280208     0.31500
H450        H  0.03491368  0.66793450  0.06624055     0.33100
H451        H  0.97180902  0.64773412  0.09511793     0.32100
H452        H  0.99760249  0.47326966  0.05543288     0.36100
H453        H  0.88910578  0.48695889  0.05479509     0.28800
H454        H  0.11018822  0.60790337  0.12994010     0.33100
H455        H  0.00898746  0.61323831  0.12851102     0.35900
H456        H  0.11523802  0.63164537  0.06442395     0.28500
H457        H  0.91642116  0.46878005  0.05310664     0.41400
H458        H  0.94126417  0.39904017  0.11468193     0.31500
H459        H  0.99789138  0.42268907  0.08538665     0.39100
H460        H  0.01179601  0.66167257  0.10213937     0.30900
H461        H  0.93812782  0.47853737  0.13222308     0.31000
H462        H  0.06768266  0.59949410  0.13302832     0.31300
Zr463      Zr  0.19996796  0.43122004  0.22772229     2.17500
O464        O  0.23668069  0.45651543  0.20812425    -0.51100
O465        O  0.18948634  0.48621249  0.23197235    -0.74300
O466        O  0.15582635  0.42374346  0.21013681    -0.81100
O467        O  0.28878553  0.47683708  0.24944735    -0.82800
O468        O  0.10065522  0.36436500  0.21145884    -0.78500
O469        O  0.26684778  0.48519593  0.23029598    -0.90100
O470        O  0.15222811  0.47170160  0.24961555    -0.76000
O471        O  0.13431159  0.39810774  0.23504804    -0.85500
O472        O  0.20430202  0.44094311  0.25012860    -0.85200
O473        O  0.17346553  0.36348321  0.22191459    -0.72000
O474        O  0.23795777  0.40281573  0.23544384    -0.84100
Zr475      Zr  0.14861804  0.31304080  0.26056627     2.26400
Zr476      Zr  0.10774054  0.33047740  0.22979706     2.06300
Zr477      Zr  0.24149274  0.41244604  0.25788237     2.10000
Zr478      Zr  0.13832450  0.40796056  0.25729711     1.78800
O479        O  0.29815718  0.40366912  0.25616722    -0.92900
O480        O  0.07293154  0.39669594  0.25251560    -0.40700
O481        O  0.17595171  0.38082307  0.26569636    -0.77400
O482        O  0.11000081  0.33978082  0.25234999    -0.96100
O483        O  0.14422195  0.30228106  0.23827157    -0.89400
O484        O  0.21443011  0.34457563  0.25313812    -0.92200
C485        C  0.17136030  0.49451517  0.24042596     1.01600
C486        C  0.29262561  0.49633119  0.23922741     1.14500
C487        C  0.12153755  0.39784169  0.20616329     1.05300
O488        O  0.04222019  0.32188829  0.23072323    -0.94400
O489        O  0.06264321  0.26397571  0.23711442    -0.90100
O490        O  0.08584333  0.25513498  0.25587799    -0.83200
C491        C  0.06058342  0.24299969  0.24677211     1.11900
O492        O  0.24868659  0.35637379  0.21159797    -0.96300
Zr493      Zr  0.20929224  0.33421965  0.23076089     1.88900
O494        O  0.16583940  0.26218756  0.25859138    -0.73000
O495        O  0.09540613  0.28852988  0.21137277    -0.52200
O496        O  0.17884840  0.28776771  0.21339572    -0.96900
O497        O  0.27326217  0.33960411  0.23346061    -0.54100
O498        O  0.19531797  0.27113049  0.23949632    -0.73500
C499        C  0.18030758  0.25132369  0.24968451     0.98800
O500        O  0.10925725  0.28712333  0.27965544    -0.62300
O501        O  0.27420994  0.45747100  0.27542957    -0.57100
O502        O  0.18156595  0.32850494  0.28113852    -0.93800
O503        O  0.23596106  0.38836107  0.27944708    -0.92200
O504        O  0.16173300  0.44976604  0.27602383    -0.92600
O505        O  0.09584676  0.38331958  0.27571684    -0.91400
C506        C  0.21227107  0.35797395  0.28584490     1.17700
H507        H  0.21739851  0.46832974  0.25236522     0.33600
H508        H  0.08393682  0.32558079  0.25581769     0.44500
H509        H  0.22922920  0.33413462  0.25723482     0.38000
H510        H  0.17312586  0.36145529  0.21277155     0.34500
H511        H  0.07092903  0.41722947  0.25724872     0.26300
H512        H  0.06994494  0.28375253  0.20794516     0.32200
H513        H  0.19253185  0.27249599  0.21331998     0.38100
H514        H  0.18586269  0.47349621  0.27324867     0.32600
H515        H  0.30233412  0.47204983  0.27324208     0.31500
H516        H  0.29896487  0.39151639  0.26431734     0.33100
H517        H  0.27266853  0.31952512  0.22770002     0.32100
H518        H  0.10171174  0.36385132  0.27953218     0.36100
H519        H  0.08531455  0.28865491  0.27800828     0.28800
H520        H  0.22957721  0.47575967  0.20490522     0.33100
H521        H  0.24455732  0.37748635  0.20823155     0.35900
H522        H  0.26519840  0.47674604  0.27484959     0.28500
H523        H  0.10031166  0.25880274  0.27974199     0.41400
H524        H  0.03572195  0.31931128  0.23986138     0.31500
H525        H  0.07365676  0.40392320  0.24347357     0.39100
H526        H  0.27296621  0.32935641  0.24207275     0.30900
H527        H  0.11469899  0.30530706  0.20493392     0.31000
H528        H  0.22454827  0.43447860  0.20202499     0.31300
Zr529      Zr  0.62595591  0.83256109  0.23025913     2.17500
O530        O  0.60223224  0.85145156  0.21162056    -0.51100
O531        O  0.56946328  0.76726147  0.23249936    -0.74300
O532        O  0.62993363  0.79866358  0.21148169    -0.81100
O533        O  0.58743293  0.87843480  0.25384136    -0.82800
O534        O  0.68774086  0.79919163  0.21199901    -0.78500
O535        O  0.57465530  0.84811299  0.23464010    -0.90100
O536        O  0.58321235  0.73839526  0.24873933    -0.76000
O537        O  0.65651897  0.79570305  0.23594748    -0.85500
O538        O  0.61661046  0.82179680  0.25251655    -0.85200
O539        O  0.69365152  0.87216386  0.22444377    -0.72000
O540        O  0.65710744  0.89645630  0.23983980    -0.84100
Zr541      Zr  0.74695970  0.88757410  0.26277319     2.26400
Zr542      Zr  0.72443369  0.83536571  0.23083637     2.06300
Zr543      Zr  0.64858922  0.88492511  0.26220431     2.10000
Zr544      Zr  0.64688177  0.78484007  0.25806242     1.78800
O545        O  0.65366080  0.94827564  0.26564894    -0.92900
O546        O  0.65766763  0.73105378  0.25263497    -0.40700
O547        O  0.67892772  0.84775478  0.26820341    -0.77400
O548        O  0.71529985  0.82353370  0.25320105    -0.96100
O549        O  0.75611283  0.89857885  0.24052844    -0.89400
O550        O  0.71644861  0.92457589  0.25705978    -0.92200
C551        C  0.56060386  0.73787679  0.23978794     1.01600
C552        C  0.56631438  0.86430448  0.24375238     1.14500
C553        C  0.65434338  0.78936134  0.20689574     1.05300
O554        O  0.73087581  0.77742621  0.22880766    -0.94400
O555        O  0.78777350  0.84579798  0.23869590    -0.90100
O556        O  0.80010120  0.87495859  0.25802920    -0.83200
C557        C  0.80934610  0.86032262  0.24867942     1.11900
O558        O  0.70245702  0.96115960  0.21787089    -0.96300
Zr559      Zr  0.72524095  0.93490505  0.23476684     1.88900
O560        O  0.80239212  0.95410855  0.26030585    -0.73000
O561        O  0.76797744  0.86941630  0.21319345    -0.52200
O562        O  0.76609770  0.95026820  0.21599329    -0.96900
O563        O  0.72377324  0.99395549  0.24058698    -0.54100
O564        O  0.79029801  0.98019884  0.24278777    -0.73500
C565        C  0.81216429  0.98155507  0.25207695     0.98800
O566        O  0.77487862  0.86796587  0.28009996    -0.62300
O567        O  0.60200965  0.85249508  0.27927136    -0.57100
O568        O  0.73720585  0.90930538  0.28349461    -0.93800
O569        O  0.67795002  0.90577939  0.28311083    -0.92200
O570        O  0.59967064  0.76053795  0.27525467    -0.92600
O571        O  0.66701836  0.76291507  0.27679589    -0.91400
C572        C  0.70958619  0.91243609  0.28879714     1.17700
H573        H  0.58914115  0.80789426  0.25464655     0.33600
H574        H  0.72813374  0.80944600  0.25602932     0.44500
H575        H  0.72808830  0.94902889  0.26165259     0.38000
H576        H  0.69534564  0.87586961  0.21535222     0.34500
H577        H  0.63563223  0.70771881  0.25658048     0.26300
H578        H  0.77167265  0.84915903  0.20894992     0.32200
H579        H  0.79233911  0.95700636  0.21925855     0.38100
H580        H  0.60586079  0.78406245  0.28030932     0.32600
H581        H  0.59454645  0.87170763  0.28212001     0.31500
H582        H  0.62797462  0.94214467  0.26913338     0.33100
H583        H  0.74102495  0.00472349  0.24813548     0.32100
H584        H  0.68603384  0.78734288  0.28118897     0.36100
H585        H  0.79284457  0.89234842  0.28472177     0.28800
H586        H  0.58045634  0.82665772  0.20821491     0.33100
H587        H  0.72542846  0.98656199  0.21552772     0.35900
H588        H  0.57824250  0.83144646  0.27512208     0.28500
H589        H  0.75302038  0.85279832  0.28601674     0.41400
H590        H  0.73157136  0.76906415  0.23763076     0.31500
H591        H  0.65247789  0.72711691  0.24338876     0.39100
H592        H  0.69705461  0.98433340  0.24387713     0.30900
H593        H  0.75209545  0.87489110  0.20710034     0.31000
H594        H  0.62328796  0.85995845  0.20525634     0.31300
Zr595      Zr  0.47429107  0.57656540  0.10531344     2.17500
O596        O  0.43200111  0.55854989  0.12375053    -0.51100
O597        O  0.48474137  0.64170999  0.10144669    -0.74300
O598        O  0.51485903  0.61297150  0.12352763    -0.81100
O599        O  0.38036787  0.51428779  0.08687453    -0.82800
O600        O  0.57382832  0.61664660  0.12102854    -0.78500
O601        O  0.40673176  0.56074974  0.10226645    -0.90100
O602        O  0.51634809  0.66308812  0.08266633    -0.76000
O603        O  0.53812098  0.61344363  0.09658320    -0.85500
O604        O  0.46566526  0.57731822  0.08295218    -0.85200
O605        O  0.50816227  0.54274611  0.11165379    -0.72000
O606        O  0.44022757  0.50924637  0.09883816    -0.84100
Zr607      Zr  0.53023101  0.51299302  0.07319650     2.26400
Zr608      Zr  0.57167297  0.57932740  0.10230105     2.06300
Zr609      Zr  0.43287574  0.51044332  0.07639176     2.10000
Zr610      Zr  0.52948051  0.61372256  0.07427367     1.78800
O611        O  0.38109650  0.44218094  0.07580766    -0.92900
O612        O  0.59332742  0.67285254  0.07558656    -0.40700
O613        O  0.49665171  0.54730196  0.06727443    -0.77400
O614        O  0.56475819  0.58062177  0.07966705    -0.96100
O615        O  0.53876282  0.51256907  0.09559173    -0.89400
O616        O  0.46610979  0.47576274  0.08193854    -0.92200
C617        C  0.50060830  0.66744574  0.09268265     1.01600
C618        C  0.37785741  0.53596921  0.09541064     1.14500
C619        C  0.55025359  0.62434628  0.12707020     1.05300
O620        O  0.63078097  0.64287732  0.10030160    -0.94400
O621        O  0.62236391  0.56727413  0.09421450    -0.90100
O622        O  0.59792461  0.52833306  0.07678263    -0.83200
C623        C  0.62523548  0.54759382  0.08499468     1.11900
O624        O  0.43909369  0.46389256  0.12416634    -0.96300
Zr625      Zr  0.47519919  0.47632984  0.10438553     1.88900
O626        O  0.51582816  0.44615268  0.07666598    -0.73000
O627        O  0.59767481  0.55849698  0.11981444    -0.52200
O628        O  0.51130176  0.46632085  0.12146386    -0.96900
O629        O  0.41296937  0.41493961  0.10404976    -0.54100
O630        O  0.48988287  0.42799415  0.09634812    -0.73500
C631        C  0.50302505  0.42211036  0.08599839     0.98800
O632        O  0.57065260  0.51641986  0.05525700    -0.62300
O633        O  0.39563451  0.52856941  0.06209401    -0.57100
O634        O  0.49510033  0.49540088  0.05273636    -0.93800
O635        O  0.43639034  0.49199287  0.05476929    -0.92200
O636        O  0.49524812  0.62555231  0.05698010    -0.92600
O637        O  0.56424646  0.62948878  0.05417998    -0.91400
C638        C  0.46241755  0.49009747  0.04812365     1.17700
H639        H  0.45019782  0.58934579  0.08088829     0.33600
H640        H  0.59023462  0.59409732  0.07573932     0.44500
H641        H  0.45225857  0.44959190  0.07849617     0.38000
H642        H  0.51040531  0.54281031  0.12079552     0.34500
H643        H  0.58970557  0.69316186  0.07127900     0.26300
H644        H  0.62266377  0.58211606  0.12215956     0.32200
H645        H  0.53861055  0.47870920  0.11842738     0.38100
H646        H  0.46711281  0.60992716  0.05906574     0.32600
H647        H  0.36795047  0.50770190  0.06294811     0.31500
H648        H  0.37053958  0.43664106  0.08453541     0.33100
H649        H  0.41854859  0.39581520  0.10828981     0.32100
H650        H  0.55235160  0.60436715  0.04949778     0.36100
H651        H  0.55721937  0.49007557  0.05133422     0.28800
H652        H  0.43399415  0.58325936  0.12669925     0.33100
H653        H  0.43801887  0.44033001  0.12789778     0.35900
H654        H  0.39684860  0.55221112  0.06576053     0.28500
H655        H  0.56840406  0.53383529  0.04893877     0.41400
H656        H  0.64357917  0.64800658  0.10875753     0.31500
H657        H  0.59666606  0.68032800  0.08467039     0.39100
H658        H  0.40845435  0.40663115  0.09504540     0.30900
H659        H  0.58010993  0.55423892  0.12705028     0.31000
H660        H  0.44507567  0.55121654  0.13036779     0.31300
Zr661      Zr  0.46861280  0.98166255  0.10422290     2.17500
O662        O  0.48036431  0.95282984  0.12305431    -0.51100
O663        O  0.40467589  0.92607520  0.09935702    -0.74300
O664        O  0.42905531  0.98088076  0.12177887    -0.81100
O665        O  0.52064918  0.94683241  0.08226316    -0.82800
O666        O  0.43069352  0.03935265  0.12217432    -0.78500
O667        O  0.48567836  0.93141282  0.10043787    -0.90100
O668        O  0.37944716  0.94107691  0.08229893    -0.76000
O669        O  0.43241876  0.01188218  0.09737612    -0.85500
O670        O  0.46403904  0.97528332  0.08178380    -0.85200
O671        O  0.50553812  0.04819475  0.11169432    -0.72000
O672        O  0.53537520  0.01509797  0.09726266    -0.84100
Zr673      Zr  0.53009077  0.10557660  0.07407788     2.26400
Zr674      Zr  0.46931720  0.07837745  0.10422389     2.06300
Zr675      Zr  0.53010035  0.00929303  0.07471167     2.10000
Zr676      Zr  0.42806721  0.00568749  0.07495589     1.78800
O677        O  0.59551019  0.01752530  0.07430270    -0.92900
O678        O  0.36666111  0.00541204  0.07772536    -0.40700
O679        O  0.49359587  0.03885734  0.06728344    -0.77400
O680        O  0.46351389  0.07302086  0.08149858    -0.96100
O681        O  0.53486095  0.11227780  0.09654798    -0.89400
O682        O  0.56742296  0.07644682  0.08098305    -0.92200
C683        C  0.37741345  0.91775945  0.09113716     1.01600
C684        C  0.50426044  0.92443964  0.09182195     1.14500
C685        C  0.41976152  0.00495471  0.12650907     1.05300
O686        O  0.40972871  0.08198137  0.10598282    -0.94400
O687        O  0.47915642  0.14133818  0.09711811    -0.90100
O688        O  0.51702531  0.15762071  0.07953573    -0.83200
C689        C  0.49862437  0.16485019  0.08808760     1.11900
O690        O  0.59100690  0.05708630  0.12146231    -0.96300
Zr691      Zr  0.57123327  0.08269706  0.10352474     1.88900
O692        O  0.59617493  0.15907510  0.07767717    -0.73000
O693        O  0.50113086  0.12317676  0.12189149    -0.52200
O694        O  0.58338602  0.12254629  0.12248231    -0.96900
O695        O  0.63270004  0.08371115  0.09979328    -0.54100
O696        O  0.61663437  0.14954711  0.09681036    -0.73500
C697        C  0.62084668  0.17029031  0.08688445     0.98800
O698        O  0.52305869  0.14004886  0.05595137    -0.62300
O699        O  0.50852266  0.96456701  0.05666957    -0.57100
O700        O  0.54977430  0.09591990  0.05303570    -0.93800
O701        O  0.55229119  0.04015741  0.05440685    -0.92200
O702        O  0.41678454  0.96508672  0.05626307    -0.92600
O703        O  0.41247907  0.03295647  0.05652147    -0.91400
C704        C  0.55585510  0.06964670  0.04816420     1.17700
H705        H  0.45132376  0.94824106  0.07913283     0.33600
H706        H  0.45007157  0.08614701  0.07831707     0.44500
H707        H  0.59297799  0.08895196  0.07713681     0.38000
H708        H  0.50650037  0.04839333  0.12086397     0.34500
H709        H  0.35903827  0.99697701  0.08661503     0.26300
H710        H  0.47963905  0.12434816  0.12628022     0.32200
H711        H  0.61203445  0.14068424  0.12262997     0.38100
H712        H  0.38930765  0.95593037  0.05374244     0.32600
H713        H  0.52617494  0.95351817  0.05657440     0.31500
H714        H  0.60145472  0.01774286  0.06517764     0.33100
H715        H  0.64542855  0.10230611  0.09272240     0.32100
H716        H  0.43824460  0.05325717  0.05328627     0.36100
H717        H  0.49723360  0.13827251  0.05678979     0.28800
H718        H  0.45439671  0.93064904  0.12536700     0.33100
H719        H  0.61717672  0.07841607  0.12412493     0.35900
H720        H  0.48270566  0.94246117  0.05912530     0.28500
H721        H  0.54268619  0.16804935  0.05712459     0.41400
H722        H  0.38943823  0.05816117  0.10162475     0.31500
H723        H  0.37399594  0.03333614  0.07768334     0.39100
H724        H  0.62483638  0.05774742  0.09611731     0.30900
H725        H  0.50921688  0.10902585  0.12782750     0.31000
H726        H  0.48703614  0.97229530  0.12991713     0.31300
Zr727      Zr  0.22859774  0.85355506  0.23133567     2.17500
O728        O  0.20934926  0.80712707  0.21381335    -0.51100
O729        O  0.29655233  0.87020703  0.23229525    -0.74300
O730        O  0.25180172  0.88688626  0.21112924    -0.81100
O731        O  0.19541668  0.77433297  0.25677458    -0.82800
O732        O  0.24458652  0.94029171  0.21081865    -0.78500
O733        O  0.21844207  0.78885229  0.23659657    -0.90100
O734        O  0.32692408  0.91627221  0.24763665    -0.76000
O735        O  0.26068171  0.92222468  0.23510503    -0.85500
O736        O  0.24754840  0.86250151  0.25315829    -0.85200
O737        O  0.18163937  0.87322519  0.22596621    -0.72000
O738        O  0.16901605  0.81754881  0.24290818    -0.84100
Zr739      Zr  0.17147791  0.91489019  0.26417753     2.26400
Zr740      Zr  0.21351796  0.94185138  0.23063745     2.06300
Zr741      Zr  0.18821058  0.82805452  0.26474705     2.10000
Zr742      Zr  0.27901577  0.93110315  0.25680175     1.78800
O743        O  0.13317672  0.76573713  0.27139354    -0.92900
O744        O  0.32562266  0.99224657  0.24659695    -0.40700
O745        O  0.21993365  0.89658466  0.26894238    -0.77400
O746        O  0.23198591  0.95158453  0.25266423    -0.96100
O747        O  0.15400142  0.90655898  0.24222861    -0.89400
O748        O  0.14026019  0.84650741  0.26009539    -0.92200
C749        C  0.32671126  0.89329235  0.23896643     1.01600
C750        C  0.20634574  0.76615678  0.24633922     1.14500
C751        C  0.25572020  0.91791596  0.20576244     1.05300
O752        O  0.26598931  0.00779706  0.22586574    -0.94400
O753        O  0.19931518  0.99181939  0.23807889    -0.90100
O754        O  0.17398564  0.97542977  0.25792645    -0.83200
C755        C  0.18488647  0.99783990  0.24814977     1.11900
O756        O  0.09925012  0.78531826  0.22269970    -0.96300
Zr757      Zr  0.12298389  0.83835794  0.23815458     1.88900
O758        O  0.10163825  0.89500035  0.26323886    -0.73000
O759        O  0.16981309  0.94342558  0.21450052    -0.52200
O760        O  0.09431753  0.85021325  0.21928278    -0.96900
O761        O  0.07169113  0.77683238  0.24694114    -0.54100
O762        O  0.07587778  0.85480345  0.24620800    -0.73500
C763        C  0.07332310  0.87441482  0.25546181     0.98800
O764        O  0.19153969  0.96180771  0.28157349    -0.62300
O765        O  0.23227877  0.82525140  0.28052654    -0.57100
O766        O  0.15629289  0.88718117  0.28569422    -0.93800
O767        O  0.16783109  0.83638923  0.28546087    -0.92200
O768        O  0.31219264  0.92294854  0.27515694    -0.92600
O769        O  0.30504146  0.98274726  0.27276926    -0.91400
C770        C  0.15786648  0.85873029  0.29113774     1.17700
H771        H  0.26442906  0.85201815  0.25515462     0.33600
H772        H  0.24389202  0.97900048  0.25477693     0.44500
H773        H  0.11749100  0.83235519  0.26537496     0.38000
H774        H  0.17521962  0.86874361  0.21703058     0.34500
H775        H  0.35014040  0.00200701  0.25157931     0.26300
H776        H  0.18668611  0.96681043  0.20933794     0.32200
H777        H  0.09596394  0.87569992  0.22086716     0.38100
H778        H  0.31082279  0.89749967  0.27377959     0.32600
H779        H  0.21551126  0.80180641  0.28568539     0.31500
H780        H  0.14325358  0.75750366  0.27871068     0.33100
H781        H  0.05835503  0.78412593  0.25339465     0.32100
H782        H  0.28159481  0.98133808  0.27665412     0.36100
H783        H  0.21493015  0.98575235  0.27849979     0.28800
H784        H  0.23392558  0.81384153  0.20934827     0.33100
H785        H  0.07060379  0.77459510  0.22208811     0.35900
H786        H  0.24937297  0.81822744  0.27574409     0.28500
H787        H  0.17084849  0.96893352  0.28222036     0.41400
H788        H  0.28956189  0.00532686  0.22476690     0.31500
H789        H  0.31631855  0.01073887  0.24854859     0.39100
H790        H  0.08586676  0.76641592  0.25190770     0.30900
H791        H  0.16348032  0.92104194  0.20883765     0.31000
H792        H  0.19453716  0.81440217  0.20784061     0.31300
Zr793      Zr  0.83829940  0.65180305  0.77543185     2.17500
O794        O  0.85851464  0.62731411  0.79348703    -0.51100
O795        O  0.77287160  0.59688836  0.77076491    -0.74300
O796        O  0.80329222  0.65432611  0.79414515    -0.81100
O797        O  0.88851167  0.61544140  0.75359489    -0.82800
O798        O  0.80799045  0.71406321  0.79366846    -0.78500
O799        O  0.85036513  0.59847162  0.77109515    -0.90100
O800        O  0.74953289  0.61283319  0.75334838    -0.76000
O801        O  0.80397491  0.68429398  0.76897384    -0.85500
O802        O  0.83210722  0.64555616  0.75295604    -0.85200
O803        O  0.87894797  0.71861464  0.78220188    -0.72000
O804        O  0.90414585  0.68270409  0.76749420    -0.84100
Zr805      Zr  0.90128398  0.77453243  0.74407470     2.26400
Zr806      Zr  0.84458199  0.75079026  0.77523217     2.06300
Zr807      Zr  0.89712451  0.67623611  0.74504213     2.10000
Zr808      Zr  0.79754237  0.67789508  0.74657214     1.78800
O809        O  0.96366662  0.68829710  0.74273271    -0.92900
O810        O  0.74032149  0.68371295  0.75130611    -0.40700
O811        O  0.86183472  0.70753738  0.73814149    -0.77400
O812        O  0.83598041  0.74507927  0.75256526    -0.96100
O813        O  0.90907761  0.78244972  0.76656435    -0.89400
O814        O  0.93741101  0.74367059  0.75067119    -0.92200
C815        C  0.74677819  0.58894324  0.76207127     1.01600
C816        C  0.86984240  0.59201220  0.76271233     1.14500
C817        C  0.79608418  0.68028198  0.79867869     1.05300
O818        O  0.78556444  0.75405602  0.77888789    -0.94400
O819        O  0.85195098  0.81196024  0.76760918    -0.90100
O820        O  0.88363680  0.82444980  0.74873234    -0.83200
C821        C  0.86685457  0.83271591  0.75764106     1.11900
O822        O  0.96296729  0.72402622  0.79105511    -0.96300
Zr823      Zr  0.94352859  0.75044184  0.77323249     1.88900
O824        O  0.96883649  0.82533855  0.74706385    -0.73000
O825        O  0.87929884  0.79425374  0.79295897    -0.52200
O826        O  0.95743811  0.79064555  0.79219837    -0.96900
O827        O  0.00215801  0.74632145  0.76915503    -0.54100
O828        O  0.99052165  0.81625990  0.76610014    -0.73500
C829        C  0.99414461  0.83641029  0.75608452     0.98800
O830        O  0.90829226  0.81583222  0.72584947    -0.62300
O831        O  0.87333314  0.62522952  0.72883293    -0.57100
O832        O  0.90689464  0.75450990  0.72232429    -0.93800
O833        O  0.90878444  0.69792559  0.72342215    -0.92200
O834        O  0.77970977  0.63887933  0.72724487    -0.92600
O835        O  0.78192872  0.70603942  0.72839308    -0.91400
C836        C  0.90926312  0.72604829  0.71723829     1.17700
H837        H  0.81835409  0.61849469  0.75033274     0.33600
H838        H  0.82230500  0.75814805  0.74955725     0.44500
H839        H  0.96247271  0.75506122  0.74652568     0.38000
H840        H  0.88113179  0.71965906  0.79135679     0.34500
H841        H  0.72013141  0.66610342  0.74513604     0.26300
H842        H  0.89935932  0.81885895  0.78897116     0.32200
H843        H  0.98604534  0.80295536  0.79355395     0.38100
H844        H  0.80463015  0.64170593  0.72415126     0.32600
H845        H  0.89248423  0.61597358  0.72873824     0.31500
H846        H  0.96394542  0.66646000  0.74728118     0.33100
H847        H  0.01358406  0.76169539  0.76133306     0.32100
H848        H  0.80747059  0.72304278  0.72429282     0.36100
H849        H  0.88241070  0.81379383  0.72463855     0.28800
H850        H  0.83422777  0.60446629  0.79659867     0.33100
H851        H  0.99017077  0.74404841  0.79329065     0.35900
H852        H  0.84907179  0.60304946  0.73228282     0.28500
H853        H  0.92598275  0.84308839  0.72867453     0.41400
H854        H  0.76787661  0.73901368  0.77178025     0.31500
H855        H  0.73097190  0.67052449  0.75959880     0.39100
H856        H  0.99221001  0.71882416  0.76658456     0.30900
H857        H  0.86019168  0.80079053  0.79658615     0.31000
H858        H  0.86636607  0.64751690  0.80015736     0.31300
Zr859      Zr  0.57809714  0.53660281  0.89791196     2.17500
O860        O  0.56423346  0.49758612  0.87865002    -0.51100
O861        O  0.64356873  0.54848601  0.90235365    -0.74300
O862        O  0.61410535  0.57767132  0.87997435    -0.81100
O863        O  0.52851964  0.44645440  0.91858087    -0.82800
O864        O  0.61461927  0.63525500  0.88171629    -0.78500
O865        O  0.56577370  0.47038630  0.90084311    -0.90100
O866        O  0.66583026  0.58442009  0.92037676    -0.76000
O867        O  0.61282064  0.60134951  0.90611464    -0.85500
O868        O  0.58092077  0.53065031  0.92036295    -0.85200
O869        O  0.54076500  0.56667819  0.89146960    -0.72000
O870        O  0.51103986  0.50033681  0.90452418    -0.84100
Zr871      Zr  0.51098319  0.59018426  0.92959909     2.26400
Zr872      Zr  0.57563654  0.63138626  0.90018558     2.06300
Zr873      Zr  0.51433180  0.49546291  0.92704947     2.10000
Zr874      Zr  0.61491292  0.59561254  0.92847118     1.78800
O875        O  0.44951124  0.43775691  0.92523914    -0.92900
O876        O  0.67344611  0.65951047  0.92612009    -0.40700
O877        O  0.54877539  0.56036785  0.93562073    -0.77400
O878        O  0.57821763  0.62705520  0.92289397    -0.96100
O879        O  0.50918098  0.59668405  0.90719240    -0.89400
O880        O  0.47611017  0.52513991  0.92147327    -0.92200
C881        C  0.66987916  0.56640885  0.91093501     1.01600
C882        C  0.54738353  0.44360476  0.90914212     1.14500
C883        C  0.62425228  0.61239655  0.87614080     1.05300
O884        O  0.63808698  0.69184031  0.90223357    -0.94400
O885        O  0.56060872  0.68040895  0.90781959    -0.90100
O886        O  0.52164246  0.65546318  0.92512938    -0.83200
C887        C  0.54038298  0.68257800  0.91694727     1.11900
O888        O  0.45928830  0.49693302  0.87894161    -0.96300
Zr889      Zr  0.47463753  0.53212742  0.89902820     1.88900
O890        O  0.44347351  0.57426392  0.92608325    -0.73000
O891        O  0.55250407  0.65294662  0.88208871    -0.52200
O892        O  0.46120157  0.56420264  0.88151610    -0.96900
O893        O  0.41717445  0.46716217  0.90092556    -0.54100
O894        O  0.42496587  0.54615200  0.90664814    -0.73500
C895        C  0.41900832  0.56025849  0.91680990     0.98800
O896        O  0.51425358  0.62690684  0.94861264    -0.62300
O897        O  0.53129853  0.46672884  0.94476556    -0.57100
O898        O  0.49261763  0.55610637  0.95000023    -0.93800
O899        O  0.49040761  0.49766674  0.94788614    -0.92200
O900        O  0.62683409  0.56335931  0.94628882    -0.92600
O901        O  0.63176446  0.63571903  0.94756400    -0.91400
C902        C  0.48709007  0.52325002  0.95435862     1.17700
H903        H  0.59435985  0.51673183  0.92271802     0.33600
H904        H  0.59064668  0.65282283  0.92665448     0.44500
H905        H  0.45023105  0.51072231  0.92505601     0.38000
H906        H  0.54022559  0.56796087  0.88231397     0.34500
H907        H  0.69443979  0.65720972  0.93054759     0.26300
H908        H  0.57559949  0.67772979  0.87936787     0.32200
H909        H  0.47270943  0.59180344  0.88422727     0.38100
H910        H  0.65393572  0.58185454  0.94911298     0.32600
H911        H  0.51955543  0.43857917  0.94274307     0.31500
H912        H  0.43354519  0.44156854  0.93167124     0.33100
H913        H  0.39828730  0.46670640  0.89458273     0.32100
H914        H  0.60701637  0.63444531  0.95007328     0.36100
H915        H  0.53926552  0.65200764  0.94812332     0.28800
H916        H  0.59011755  0.50390981  0.87528648     0.33100
H917        H  0.47482807  0.48353124  0.87911346     0.35900
H918        H  0.55989894  0.47758039  0.94409667     0.28500
H919        H  0.49349778  0.63385757  0.94757262     0.41400
H920        H  0.64202270  0.69686093  0.91147855     0.31500
H921        H  0.68017384  0.66122721  0.91701338     0.39100
H922        H  0.40548212  0.46717869  0.90920410     0.30900
H923        H  0.54820773  0.63415003  0.87520511     0.31000
H924        H  0.55386747  0.50921453  0.87249149     0.31300
Zr925      Zr  0.43312468  0.23521552  0.77189361     2.17500
O926        O  0.45593087  0.27382950  0.79133713    -0.51100
O927        O  0.48824153  0.22580112  0.76758879    -0.74300
O928        O  0.42800251  0.19403359  0.78964172    -0.81100
O929        O  0.47363914  0.32440929  0.75142821    -0.82800
O930        O  0.36957932  0.13736697  0.78862580    -0.78500
O931        O  0.48801703  0.30059769  0.76905032    -0.90100
O932        O  0.47495748  0.19215747  0.74917645    -0.76000
O933        O  0.40262045  0.16999705  0.76401030    -0.85500
O934        O  0.44119894  0.24082371  0.74948823    -0.85200
O935        O  0.36603216  0.20513076  0.77842218    -0.72000
O936        O  0.40243391  0.27161728  0.76518547    -0.84100
Zr937      Zr  0.31117720  0.18096903  0.74037175     2.26400
Zr938      Zr  0.33533591  0.14033624  0.76979413     2.06300
Zr939      Zr  0.40961417  0.27589400  0.74272149     2.10000
Zr940      Zr  0.40999373  0.17554709  0.74167635     1.78800
O941        O  0.39739919  0.33044909  0.74394566    -0.92900
O942        O  0.40516313  0.11207606  0.74479859    -0.40700
O943        O  0.37860858  0.21049210  0.73456318    -0.77400
O944        O  0.34185387  0.14409935  0.74709580    -0.96100
O945        O  0.30312818  0.17491979  0.76278425    -0.89400
O946        O  0.34189794  0.24636657  0.74835469    -0.92200
C947        C  0.49757352  0.21011463  0.75860362     1.01600
C948        C  0.49635329  0.32734588  0.76073456     1.14500
C949        C  0.40294309  0.16016020  0.79381286     1.05300
O950        O  0.33630060  0.07917855  0.76946581    -0.94400
O951        O  0.27289503  0.08935779  0.76172935    -0.90100
O952        O  0.26022985  0.11306652  0.74373552    -0.83200
C953        C  0.25157800  0.08614347  0.75205988     1.11900
O954        O  0.36181390  0.28227415  0.78936956    -0.96300
Zr955      Zr  0.33458758  0.23983703  0.77086432     1.88900
O956        O  0.25955433  0.19632004  0.74439428    -0.73000
O957        O  0.29075133  0.12022749  0.78771713    -0.52200
O958        O  0.29382571  0.20661246  0.78917499    -0.96900
O959        O  0.33479588  0.30160982  0.76944702    -0.54100
O960        O  0.27009009  0.22464196  0.76380378    -0.73500
C961        C  0.24962257  0.21036263  0.75368846     0.98800
O962        O  0.27294387  0.15090871  0.72114001    -0.62300
O963        O  0.45549774  0.31096622  0.72568961    -0.57100
O964        O  0.32842475  0.21144390  0.71939503    -0.93800
O965        O  0.38678518  0.26814062  0.72097748    -0.92200
O966        O  0.44780621  0.20519964  0.72255843    -0.92600
O967        O  0.38880528  0.13294914  0.72309764    -0.91400
C968        C  0.35736458  0.24231118  0.71463977     1.17700
H969        H  0.46874568  0.25506754  0.74706286     0.33600
H970        H  0.32869355  0.11814801  0.74336754     0.44500
H971        H  0.33014521  0.26065058  0.74477926     0.38000
H972        H  0.36457789  0.20396759  0.78760121     0.34500
H973        H  0.42921560  0.11466308  0.74100821     0.26300
H974        H  0.26617176  0.11761663  0.78422922     0.32200
H975        H  0.26712131  0.18992233  0.78568428     0.38100
H976        H  0.46080051  0.18992011  0.72062116     0.32600
H977        H  0.46596828  0.33906608  0.72752519     0.31500
H978        H  0.38259995  0.32848047  0.73607968     0.33100
H979        H  0.31927272  0.29948991  0.76175287     0.32100
H980        H  0.36151018  0.12671138  0.72151531     0.36100
H981        H  0.27308874  0.12609609  0.71999184     0.28800
H982        H  0.47494268  0.26735799  0.79521158     0.33100
H983        H  0.33920315  0.28128843  0.79373859     0.35900
H984        H  0.47779681  0.30652659  0.72716069     0.28500
H985        H  0.24557668  0.14297707  0.72330234     0.41400
H986        H  0.33592612  0.07299018  0.76034843     0.31500
H987        H  0.40875909  0.11039286  0.75404650     0.39100
H988        H  0.36202210  0.32114414  0.76718270     0.30900
H989        H  0.28438785  0.09304408  0.78951090     0.31000
H990        H  0.43311474  0.26210633  0.79708120     0.31300
Zr991      Zr  0.56036657  0.11871163  0.89719313     2.17500
O992        O  0.59779873  0.14869999  0.87800089    -0.51100
O993        O  0.54936206  0.17262131  0.90196137    -0.74300
O994        O  0.51837880  0.11310010  0.87940542    -0.81100
O995        O  0.65392604  0.15293250  0.91644040    -0.82800
O996        O  0.46170968  0.05475363  0.88043111    -0.78500
O997        O  0.62879716  0.16857924  0.89940013    -0.90100
O998        O  0.51295565  0.15785138  0.91970813    -0.76000
O999        O  0.49513847  0.08690076  0.90495616    -0.85500
O1000       O  0.56648890  0.12656765  0.91962337    -0.85200
O1001       O  0.53137351  0.05197853  0.89029407    -0.72000
O1002       O  0.59705842  0.08830317  0.90386807    -0.84100
Zr1003     Zr  0.50680115  0.99629274  0.92798246     2.26400
Zr1004     Zr  0.46622285  0.01975315  0.89869435     2.06300
Zr1005     Zr  0.60155685  0.09471405  0.92640834     2.10000
Zr1006     Zr  0.50116837  0.09465456  0.92732575     1.78800
O1007       O  0.65523714  0.08101760  0.92750956    -0.92900
O1008       O  0.43661020  0.08834738  0.92583172    -0.40700
O1009       O  0.53620262  0.06335410  0.93432628    -0.77400
O1010       O  0.46987225  0.02670249  0.92130812    -0.96100
O1011       O  0.50174225  0.98876320  0.90559124    -0.89400
O1012       O  0.57242946  0.02740327  0.92034939    -0.92200
C1013       C  0.53122752  0.18069571  0.91043693     1.01600
C1014       C  0.65708321  0.17472190  0.90693604     1.14500
C1015       C  0.48416753  0.08810651  0.87530404     1.05300
O1016       O  0.40318327  0.01667719  0.90016190    -0.94400
O1017       O  0.41789525  0.95404377  0.90571722    -0.90100
O1018       O  0.44114556  0.94186586  0.92389960    -0.83200
C1019       C  0.41513811  0.93192269  0.91511652     1.11900
O1020       O  0.61073808  0.04816643  0.87973919    -0.96300
Zr1021     Zr  0.56675544  0.02102275  0.89779592     1.88900
O1022       O  0.52385361  0.94595283  0.92422094    -0.73000
O1023       O  0.44992443  0.97817636  0.87999019    -0.52200
O1024       O  0.53508486  0.98337179  0.87868794    -0.96900
O1025       O  0.62892053  0.02217307  0.90008256    -0.54100
O1026       O  0.55029779  0.95599875  0.90463764    -0.73500
C1027       C  0.53632749  0.93530365  0.91465822     0.98800
O1028       O  0.46509141  0.95635233  0.94532597    -0.62300
O1029       O  0.63297831  0.14665807  0.94219052    -0.57100
O1030       O  0.53811112  0.01310634  0.94883867    -0.93800
O1031       O  0.59451955  0.07162469  0.94806126    -0.92200
O1032       O  0.53256130  0.13884926  0.94517434    -0.92600
O1033       O  0.46629756  0.07054690  0.94726744    -0.91400
C1034       C  0.56848668  0.04167887  0.95404148     1.17700
H1035       H  0.58053455  0.15384728  0.92201222     0.33600
H1036       H  0.44391586  0.01292175  0.92488095     0.44500
H1037       H  0.58677759  0.01572311  0.92393666     0.38000
H1038       H  0.53034614  0.05089727  0.88112918     0.34500
H1039       H  0.43356304  0.09286156  0.91674789     0.26300
H1040       H  0.45355057  0.95616352  0.88271406     0.32200
H1041       H  0.54688783  0.96671668  0.87730637     0.38100
H1042       H  0.55094833  0.13104613  0.94874135     0.32600
H1043       H  0.66092735  0.15398295  0.94215731     0.31500
H1044       H  0.66887980  0.09298855  0.93560127     0.33100
H1045       H  0.62608977  0.00615328  0.90767416     0.32100
H1046       H  0.47338403  0.05108199  0.95027080     0.36100
H1047       H  0.47966330  0.94541166  0.94979020     0.28800
H1048       H  0.58979315  0.16759533  0.87513083     0.33100
H1049       H  0.61287895  0.02623857  0.87607991     0.35900
H1050       H  0.63250704  0.16951151  0.93850322     0.28500
H1051       H  0.46390977  0.97479881  0.95141446     0.41400
H1052       H  0.38645909  0.99699108  0.89373569     0.31500
H1053       H  0.41792496  0.06016780  0.92711057     0.39100
H1054       H  0.64785569  0.04929499  0.90272450     0.30900
H1055       H  0.42125629  0.96643995  0.87893371     0.31000
H1056       H  0.58716167  0.12773191  0.87150482     0.31300
Zr1057     Zr  0.97772898  0.52059843  0.89473558     2.17500
O1058       O  0.95528693  0.53983382  0.87591859    -0.51100
O1059       O  0.92257028  0.45501176  0.89751470    -0.74300
O1060       O  0.98279585  0.48560954  0.87654210    -0.81100
O1061       O  0.93709622  0.56815482  0.91536714    -0.82800
O1062       O  0.03836855  0.48244644  0.87940387    -0.78500
O1063       O  0.92371657  0.53240976  0.89726280    -0.90100
O1064       O  0.93555165  0.42920162  0.91488937    -0.76000
O1065       O  0.00808341  0.48491213  0.90191545    -0.85500
O1066       O  0.96681825  0.51287705  0.91706433    -0.85200
O1067       O  0.04555967  0.56048065  0.88922319    -0.72000
O1068       O  0.00694725  0.58575854  0.90322149    -0.84100
Zr1069     Zr  0.09512393  0.58140545  0.92840081     2.26400
Zr1070     Zr  0.07579273  0.52499276  0.89707168     2.06300
Zr1071     Zr  0.99696598  0.57769049  0.92553933     2.10000
Zr1072     Zr  0.99780266  0.47744892  0.92408297     1.78800
O1073       O  0.01166662  0.64525659  0.92710382    -0.92900
O1074       O  0.00924532  0.42325412  0.91998992    -0.40700
O1075       O  0.02686443  0.54152867  0.93290467    -0.77400
O1076       O  0.06636290  0.51632015  0.91961175    -0.96100
O1077       O  0.10567907  0.58905819  0.90609428    -0.89400
O1078       O  0.06535298  0.61796029  0.92119416    -0.92200
C1079       C  0.91381884  0.42721894  0.90545611     1.01600
C1080       C  0.91581149  0.55100510  0.90556996     1.14500
C1081       C  0.00643726  0.47363700  0.87341919     1.05300
O1082       O  0.08817777  0.47054004  0.89579984    -0.94400
O1083       O  0.13919539  0.53852870  0.90511182    -0.90100
O1084       O  0.14906484  0.56920931  0.92415311    -0.83200
C1085       C  0.15970093  0.55475911  0.91512571     1.11900
O1086       O  0.05030110  0.64193618  0.88011552    -0.96300
Zr1087     Zr  0.07541827  0.62446234  0.89874941     1.88900
O1088       O  0.14828199  0.64894602  0.92599628    -0.73000
O1089       O  0.11611548  0.55869841  0.87878563    -0.52200
O1090       O  0.12015938  0.64269270  0.88091186    -0.96900
O1091       O  0.07192094  0.68344302  0.90281268    -0.54100
O1092       O  0.14052353  0.67004749  0.90670528    -0.73500
C1093       C  0.16021619  0.67397779  0.91689892     0.98800
O1094       O  0.12549524  0.57621529  0.94801081    -0.62300
O1095       O  0.94629640  0.56369919  0.94116947    -0.57100
O1096       O  0.07534077  0.59074197  0.94966661    -0.93800
O1097       O  0.01432137  0.58297616  0.94781759    -0.92200
O1098       O  0.95246167  0.45587133  0.94182910    -0.92600
O1099       O  0.01936186  0.45839802  0.94315136    -0.91400
C1100       C  0.04396514  0.58796369  0.95438261     1.17700
H1101       H  0.93922357  0.49893467  0.91902221     0.33600
H1102       H  0.07954368  0.50310065  0.92294110     0.44500
H1103       H  0.07653778  0.64286533  0.92549509     0.38000
H1104       H  0.04802731  0.56296508  0.88009974     0.34500
H1105       H  0.98291339  0.40014422  0.91872669     0.26300
H1106       H  0.13956298  0.58160193  0.88242798     0.32200
H1107       H  0.13407813  0.67164274  0.88072078     0.38100
H1108       H  0.92793884  0.45332162  0.93831539     0.32600
H1109       H  0.93650338  0.58188994  0.93927587     0.31500
H1110       H  0.98582391  0.64366820  0.92673328     0.33100
H1111       H  0.08512234  0.69353891  0.91110342     0.32100
H1112       H  0.04061659  0.48332002  0.94667416     0.36100
H1113       H  0.12482634  0.55085274  0.94746478     0.28800
H1114       H  0.93349610  0.51515586  0.87246644     0.33100
H1115       H  0.06867401  0.67006567  0.87859161     0.35900
H1116       H  0.92438216  0.53745851  0.93889102     0.28500
H1117       H  0.15350792  0.59634319  0.94741170     0.41400
H1118       H  0.09987582  0.47295834  0.88732526     0.31500
H1119       H  0.02136460  0.42858272  0.91148771     0.39100
H1120       H  0.04390529  0.67392826  0.90444922     0.30900
H1121       H  0.12574205  0.54131950  0.87576609     0.31000
H1122       H  0.97674152  0.54833447  0.86971066     0.31300
Zr1123     Zr  0.85317989  0.25517732  0.77464278     2.17500
O1124       O  0.81423793  0.24917188  0.79328441    -0.51100
O1125       O  0.86904690  0.32152993  0.76959605    -0.74300
O1126       O  0.89423305  0.28766891  0.79312789    -0.81100
O1127       O  0.76381872  0.20752313  0.75350741    -0.82800
O1128       O  0.94602482  0.27774288  0.79335917    -0.78500
O1129       O  0.78812855  0.24586361  0.77108085    -0.90100
O1130       O  0.90578415  0.34040700  0.75176877    -0.76000
O1131       O  0.91913932  0.28476386  0.76765685    -0.85500
O1132       O  0.85038405  0.25853029  0.75210085    -0.85200
O1133       O  0.87605566  0.21223659  0.78185444    -0.72000
O1134       O  0.81316113  0.18873846  0.76755058    -0.84100
Zr1135     Zr  0.90108561  0.17947499  0.74423480     2.26400
Zr1136     Zr  0.94184419  0.24148525  0.77421717     2.06300
Zr1137     Zr  0.81179833  0.19249180  0.74496429     2.10000
Zr1138     Zr  0.91638121  0.28776073  0.74518442     1.78800
O1139       O  0.75366427  0.12779341  0.74450852    -0.92900
O1140       O  0.98180468  0.34332153  0.74873435    -0.40700
O1141       O  0.87769534  0.22229401  0.73769721    -0.77400
O1142       O  0.94153433  0.24607151  0.75145775    -0.96100
O1143       O  0.90361859  0.17552952  0.76675855    -0.89400
O1144       O  0.83488071  0.14915097  0.75123336    -0.92200
C1145       C  0.88753294  0.34619694  0.76073158     1.01600
C1146       C  0.76122119  0.22717085  0.76275187     1.14500
C1147       C  0.92589558  0.29180884  0.79817221     1.05300
O1148       O  0.00610013  0.30017120  0.77485156    -0.94400
O1149       O  0.99084639  0.22691644  0.76658171    -0.90100
O1150       O  0.96789880  0.19318444  0.74808493    -0.83200
C1151       C  0.99407190  0.20944566  0.75681686     1.11900
O1152       O  0.79318342  0.13097261  0.79156886    -0.96300
Zr1153     Zr  0.83796566  0.14675071  0.77385456     1.88900
O1154       O  0.88179883  0.11151677  0.74889278    -0.73000
O1155       O  0.95555310  0.20994748  0.79184253    -0.52200
O1156       O  0.86530334  0.13575558  0.79321006    -0.96900
O1157       O  0.77288006  0.08969291  0.77129846    -0.54100
O1158       O  0.85025945  0.09465958  0.76772775    -0.73500
C1159       C  0.86588804  0.08771336  0.75820267     0.98800
O1160       O  0.92840408  0.16733591  0.72522154    -0.62300
O1161       O  0.78283417  0.21216204  0.72800374    -0.57100
O1162       O  0.87279280  0.16885938  0.72280711    -0.93800
O1163       O  0.81926825  0.17634452  0.72343814    -0.92200
O1164       O  0.89154622  0.30219349  0.72590007    -0.92600
O1165       O  0.95856824  0.30212130  0.72682465    -0.91400
C1166       C  0.84361555  0.16963197  0.71756469     1.17700
H1167       H  0.83836040  0.27350094  0.74939587     0.33600
H1168       H  0.96775675  0.25742528  0.74814775     0.44500
H1169       H  0.81938233  0.12358329  0.74745265     0.38000
H1170       H  0.87589556  0.21131783  0.79102054     0.34500
H1171       H  0.98232969  0.36495855  0.74379479     0.26300
H1172       H  0.95057452  0.18454103  0.78839295     0.32200
H1173       H  0.84635513  0.10862785  0.79577008     0.38100
H1174       H  0.86359058  0.28170214  0.72547490     0.32600
H1175       H  0.75421712  0.19449005  0.72873808     0.31500
H1176       H  0.73857888  0.12721089  0.75205835     0.33100
H1177       H  0.77463089  0.06802485  0.77541047     0.32100
H1178       H  0.94667503  0.27733802  0.72195097     0.36100
H1179       H  0.95515269  0.19002310  0.72433190     0.28800
H1180       H  0.82358520  0.27630827  0.79616862     0.33100
H1181       H  0.78673272  0.15219721  0.79163480     0.35900
H1182       H  0.78731924  0.23823675  0.73052834     0.28500
H1183       H  0.93211659  0.14496979  0.72734189     0.41400
H1184       H  0.01378670  0.30632142  0.76584633     0.31500
H1185       H  0.98205571  0.35082013  0.75771331     0.39100
H1186       H  0.77010405  0.08326175  0.76214071     0.30900
H1187       H  0.98431923  0.22535121  0.79300364     0.31000
H1188       H  0.82294817  0.23745259  0.79996599     0.31300
C1189       C  0.98833239  0.35928255  0.82541180    -0.11600
C1190       C  0.95949344  0.36085373  0.83259622     0.10900
C1191       C  0.91972117  0.33798557  0.82900677    -0.03400
C1192       C  0.91022577  0.31466537  0.81804052    -0.06200
C1193       C  0.93912731  0.31400006  0.81042112    -0.17000
C1194       C  0.97907619  0.33597171  0.81442200     0.02000
C1195       C  0.97228993  0.38936846  0.84320069     0.11900
C1196       C  0.88757267  0.33926723  0.83648395     0.62500
H1197       H  0.87984883  0.29744222  0.81514921     0.11900
C1198       C  0.01233323  0.33665895  0.80702741     0.54700
H1199       H  0.01853696  0.37755488  0.82836731     0.07700
C1200       C  0.98326953  0.38190692  0.85524609    -0.06100
C1201       C  0.99493010  0.41066964  0.86475800    -0.06800
C1202       C  0.99528802  0.44600500  0.86261187    -0.16400
C1203       C  0.98494728  0.45360112  0.85043162    -0.02000
C1204       C  0.97421284  0.42521322  0.84087006    -0.09500
C1205       C  0.98239967  0.34371303  0.85803103     0.64700
H1206       H  0.00312864  0.40544272  0.87408913     0.10200
C1207       C  0.98489884  0.49115806  0.84744962     0.63100
H1208       H  0.96630490  0.43035408  0.83147979     0.07600
F1209       F  0.04850616  0.36111831  0.81254627    -0.19900
F1210       F  0.01279504  0.35002247  0.79485096    -0.16100
F1211       F  0.00772341  0.29958009  0.80661977    -0.19600
F1212       F  0.89111005  0.37576753  0.83530486    -0.23000
F1213       F  0.89034795  0.33191075  0.84917440    -0.24500
F1214       F  0.85065718  0.31170717  0.83219253    -0.18500
F1215       F  0.01973890  0.52313250  0.85138211    -0.21000
F1216       F  0.95401697  0.49091510  0.85358827    -0.22100
F1217       F  0.98052445  0.49516347  0.83456279    -0.19300
F1218       F  0.99248497  0.34172406  0.87051986    -0.19400
F1219       F  0.00857901  0.34017575  0.85028689    -0.23200
F1220       F  0.94524693  0.31249466  0.85583298    -0.24800
C1221       C  0.34533413  0.82164320  0.91905268    -0.11600
C1222       C  0.30919456  0.81882024  0.91633451     0.10900
C1223       C  0.30772290  0.85316299  0.91350552    -0.03400
C1224       C  0.34295061  0.88934287  0.91315675    -0.06200
C1225       C  0.37933437  0.89241488  0.91587832    -0.17000
C1226       C  0.38061068  0.85784679  0.91888487     0.02000
C1227       C  0.27306709  0.77959854  0.91677275     0.11900
C1228       C  0.26894650  0.85152028  0.91099740     0.62500
H1229       H  0.34228004  0.91581049  0.91095059     0.11900
C1230       C  0.41890020  0.85863801  0.92158428     0.54700
H1231       H  0.34556725  0.79502311  0.92137840     0.07700
C1232       C  0.26020728  0.75385093  0.90623879    -0.06100
C1233       C  0.22337134  0.71956512  0.90681076    -0.06800
C1234       C  0.19992944  0.70932218  0.91772670    -0.16400
C1235       C  0.21438877  0.73358803  0.92864545    -0.02000
C1236       C  0.25076414  0.76858935  0.92791171    -0.09500
C1237       C  0.28535321  0.76242147  0.89449570     0.64700
H1238       H  0.21252048  0.70017985  0.89867490     0.10200
C1239       C  0.19114420  0.72346823  0.94085255     0.63100
H1240       H  0.26189327  0.78821648  0.93597994     0.07600
F1241       F  0.41379018  0.82135863  0.92243711    -0.19900
F1242       F  0.43457416  0.87741962  0.93299038    -0.16100
F1243       F  0.44507959  0.87796586  0.91191147    -0.19600
F1244       F  0.24584807  0.83815256  0.92169929    -0.23000
F1245       F  0.24954910  0.82651183  0.90097962    -0.24500
F1246       F  0.27402568  0.88791504  0.90798471    -0.18500
F1247       F  0.18793270  0.68972490  0.94598855    -0.21000
F1248       F  0.15418116  0.71786131  0.93840403    -0.22100
F1249       F  0.20898011  0.75287520  0.94983742    -0.19300
F1250       F  0.26698193  0.73382845  0.88528025    -0.19400
F1251       F  0.32010421  0.76393774  0.89775705    -0.23200
F1252       F  0.29351808  0.79784921  0.88928159    -0.24800
C1253       C  0.76653953  0.24737233  0.90451102    -0.11600
C1254       C  0.76599466  0.28225843  0.90273083     0.10900
C1255       C  0.72997365  0.28129972  0.90097613    -0.03400
C1256       C  0.69511325  0.24524837  0.90207890    -0.06200
C1257       C  0.69539136  0.21051575  0.90481486    -0.17000
C1258       C  0.73171877  0.21121433  0.90559196     0.02000
C1259       C  0.80362213  0.31957282  0.90346234     0.11900
C1260       C  0.72849385  0.31824368  0.89804622     0.62500
H1261       H  0.66718966  0.24411202  0.90118414     0.11900
C1262       C  0.73406471  0.17424813  0.90736907     0.54700
H1263       H  0.79466706  0.24898902  0.90551670     0.07700
C1264       C  0.81971350  0.33764921  0.91527332    -0.06100
C1265       C  0.85522172  0.37324511  0.91536820    -0.06800
C1266       C  0.87554022  0.39064912  0.90412588    -0.16400
C1267       C  0.85977152  0.37189621  0.89229090    -0.02000
C1268       C  0.82377502  0.33649626  0.89220622    -0.09500
C1269       C  0.79988193  0.31889866  0.92773693     0.64700
H1270       H  0.86767724  0.38772419  0.92432630     0.10200
C1271       C  0.88112183  0.38820140  0.87986323     0.63100
H1272       H  0.81095405  0.32157706  0.88333558     0.07600
F1273       F  0.72296389  0.16009083  0.91954612    -0.19900
F1274       F  0.77170799  0.18105341  0.90555393    -0.16100
F1275       F  0.70975954  0.14616451  0.89868433    -0.19600
F1276       F  0.74716114  0.33387209  0.88668098    -0.23000
F1277       F  0.74694105  0.34557569  0.90757438    -0.24500
F1278       F  0.69040234  0.31090404  0.89698642    -0.18500
F1279       F  0.86329185  0.36232722  0.86989207    -0.21000
F1280       F  0.91914614  0.39545802  0.88091095    -0.22100
F1281       F  0.88145679  0.42249761  0.87690029    -0.19300
F1282       F  0.81993446  0.34197194  0.93809384    -0.19400
F1283       F  0.79827707  0.28330867  0.92914454    -0.23200
F1284       F  0.76226380  0.31295957  0.92789181    -0.24800
C1285       C  0.06830394  0.17583675  0.75262279    -0.11600
C1286       C  0.10350090  0.21130666  0.75404131     0.10900
C1287       C  0.10277878  0.24638841  0.75604008    -0.03400
C1288       C  0.06629511  0.24453161  0.75669435    -0.06200
C1289       C  0.03101880  0.20890025  0.75549576    -0.17000
C1290       C  0.03183386  0.17376131  0.75371635     0.02000
C1291       C  0.14058290  0.21031622  0.75397869     0.11900
C1292       C  0.14029697  0.28547650  0.75751016     0.62500
H1293       H  0.06496782  0.27099688  0.75814946     0.11900
C1294       C  0.99462460  0.13409749  0.75375407     0.54700
H1295       H  0.06972690  0.14948584  0.75102542     0.07700
C1296       C  0.15306238  0.19761296  0.76469995    -0.06100
C1297       C  0.18852528  0.19748275  0.76403145    -0.06800
C1298       C  0.21165905  0.20949275  0.75306527    -0.16400
C1299       C  0.19908888  0.22217210  0.74232108    -0.02000
C1300       C  0.16330079  0.22189658  0.74294323    -0.09500
C1301       C  0.12929539  0.18469440  0.77685039     0.64700
H1302       H  0.19858514  0.18789083  0.77214032     0.10200
C1303       C  0.22380786  0.23714963  0.73044672     0.63100
H1304       H  0.15277457  0.23097726  0.73482752     0.07600
F1305       F  0.00261029  0.10371551  0.75408276    -0.19900
F1306       F  0.97282882  0.12983371  0.74294102    -0.16100
F1307       F  0.97267500  0.13083221  0.76435035    -0.19600
F1308       F  0.16102005  0.29506508  0.74629480    -0.23000
F1309       F  0.16320455  0.28343292  0.76714910    -0.24500
F1310       F  0.13284511  0.31529812  0.76043795    -0.18500
F1311       F  0.22563516  0.20683345  0.72459719    -0.21000
F1312       F  0.26120948  0.26647941  0.73362099    -0.22100
F1313       F  0.20836036  0.25236215  0.72179295    -0.19300
F1314       F  0.14789413  0.17546711  0.78630706    -0.19400
F1315       F  0.09333821  0.15185311  0.77455352    -0.23200
F1316       F  0.12360797  0.21435028  0.78132860    -0.24800
C1317       C  0.68384156  0.25764542  0.76246436    -0.11600
C1318       C  0.64969108  0.22106687  0.76342734     0.10900
C1319       C  0.65235572  0.18675330  0.76460953    -0.03400
C1320       C  0.68963687  0.19038118  0.76483913    -0.06200
C1321       C  0.72385108  0.22693014  0.76385798    -0.17000
C1322       C  0.72118530  0.26128252  0.76270870     0.02000
C1323       C  0.61140104  0.21937435  0.76237791     0.11900
C1324       C  0.61600286  0.14648525  0.76536068     0.62500
H1325       H  0.69243046  0.16449535  0.76551585     0.11900
C1326       C  0.75737440  0.30124324  0.76115329     0.54700
H1327       H  0.68086047  0.28329830  0.76128896     0.07700
C1328       C  0.59438927  0.22791695  0.77270920    -0.06100
C1329       C  0.55756095  0.22477807  0.77097162    -0.06800
C1330       C  0.53701947  0.21313277  0.75930069    -0.16400
C1331       C  0.55528711  0.20591613  0.74878843    -0.02000
C1332       C  0.59229330  0.20947498  0.75060781    -0.09500
C1333       C  0.61521701  0.24039561  0.78548393     0.64700
H1334       H  0.54470818  0.23168201  0.77883364     0.10200
C1335       C  0.53708037  0.19540178  0.73557711     0.63100
H1336       H  0.60680697  0.20414711  0.74282312     0.07600
F1337       F  0.78067972  0.31056298  0.77190636    -0.19900
F1338       F  0.74792037  0.33029830  0.75930970    -0.16100
F1339       F  0.77833657  0.30091953  0.75074387    -0.19600
F1340       F  0.59495628  0.13819420  0.75413066    -0.23000
F1341       F  0.59262655  0.14529619  0.77525804    -0.24500
F1342       F  0.62533957  0.11742707  0.76737198    -0.18500
F1343       F  0.56180888  0.19305533  0.72681185    -0.21000
F1344       F  0.52891743  0.22379923  0.73138288    -0.22100
F1345       F  0.50324796  0.15930994  0.73580495    -0.19300
F1346       F  0.59267130  0.24526229  0.79450593    -0.19400
F1347       F  0.64971825  0.27556858  0.78421973    -0.23200
F1348       F  0.62367584  0.21242709  0.78991125    -0.24800
C1349       C  0.45729599  0.13590648  0.81878141    -0.11600
C1350       C  0.43036752  0.12307402  0.82873480     0.10900
C1351       C  0.39448616  0.12267778  0.82728617    -0.03400
C1352       C  0.38587482  0.13345256  0.81548939    -0.06200
C1353       C  0.41306200  0.14682488  0.80556833    -0.17000
C1354       C  0.44952251  0.14838893  0.80720221     0.02000
C1355       C  0.44207382  0.11266844  0.84082273     0.11900
C1356       C  0.36624189  0.11238287  0.83826706     0.62500
H1357       H  0.35850691  0.13318479  0.81408781     0.11900
C1358       C  0.48044602  0.16393354  0.79691987     0.54700
H1359       H  0.48503626  0.13704527  0.82032218     0.07700
C1360       C  0.43884299  0.07570823  0.84273164    -0.06100
C1361       C  0.45287233  0.06890150  0.85419372    -0.06800
C1362       C  0.46986053  0.09781347  0.86364141    -0.16400
C1363       C  0.47226207  0.13457200  0.86180222    -0.02000
C1364       C  0.45888520  0.14153442  0.85023531    -0.09500
C1365       C  0.42071795  0.04374192  0.83271045     0.64700
H1366       H  0.45116933  0.04098643  0.85581548     0.10200
C1367       C  0.48732658  0.16576128  0.87210821     0.63100
H1368       H  0.46149369  0.16975037  0.84839553     0.07600
F1369       F  0.51098956  0.15731667  0.79972062    -0.19900
F1370       F  0.49578185  0.20383260  0.79580632    -0.16100
F1371       F  0.46417216  0.14597737  0.78543223    -0.19600
F1372       F  0.38393375  0.13937504  0.84793645    -0.23000
F1373       F  0.35552851  0.07556946  0.84284438    -0.24500
F1374       F  0.33253660  0.11262145  0.83466364    -0.18500
F1375       F  0.52711392  0.18117006  0.87386774    -0.21000
F1376       F  0.46813322  0.14963273  0.88337554    -0.22100
F1377       F  0.48101572  0.19628329  0.86900376    -0.19300
F1378       F  0.41966763  0.00974730  0.83665001    -0.19400
F1379       F  0.44220635  0.05605244  0.82165803    -0.23200
F1380       F  0.38276724  0.03493962  0.83013449    -0.24800
C1381       C  0.76506545  0.56606395  0.91786779    -0.11600
C1382       C  0.77693023  0.56405344  0.90553920     0.10900
C1383       C  0.75350535  0.56209356  0.89503680    -0.03400
C1384       C  0.71923896  0.56362653  0.89727834    -0.06200
C1385       C  0.70739763  0.56635598  0.90963181    -0.17000
C1386       C  0.73070160  0.56736975  0.92018620     0.02000
C1387       C  0.81315976  0.56196374  0.90413263     0.11900
C1388       C  0.76457194  0.55829914  0.88154448     0.62500
H1389       H  0.70133945  0.56274844  0.88929949     0.11900
C1390       C  0.71950481  0.56898995  0.93385991     0.54700
H1391       H  0.78327149  0.56664816  0.92571565     0.07700
C1392       C  0.85076312  0.59553551  0.90524372    -0.06100
C1393       C  0.88366437  0.59067164  0.90503619    -0.06800
C1394       C  0.87998188  0.55356718  0.90388555    -0.16400
C1395       C  0.84236145  0.52004859  0.90244863    -0.02000
C1396       C  0.80942498  0.52492878  0.90274200    -0.09500
C1397       C  0.85610130  0.63608637  0.90710554     0.64700
H1398       H  0.91271091  0.61582853  0.90616119     0.10200
C1399       C  0.83682384  0.47927071  0.90107884     0.63100
H1400       H  0.78024924  0.49971306  0.90212666     0.07600
F1401       F  0.72346987  0.60520849  0.93630117    -0.19900
F1402       F  0.74308996  0.56347776  0.94243861    -0.16100
F1403       F  0.68130428  0.53986654  0.93596477    -0.19600
F1404       F  0.76602303  0.52421669  0.88030389    -0.23000
F1405       F  0.80080846  0.58982551  0.87867835    -0.24500
F1406       F  0.73774326  0.55711292  0.87273837    -0.18500
F1407       F  0.79765500  0.45067169  0.90115586    -0.21000
F1408       F  0.85523959  0.47172320  0.91101092    -0.22100
F1409       F  0.85251973  0.47646647  0.88970385    -0.19300
F1410       F  0.89521024  0.66484073  0.90696579    -0.19400
F1411       F  0.84080996  0.63798545  0.91866748    -0.23200
F1412       F  0.83712525  0.64423224  0.89752068    -0.24800
C1413       C  0.26910678  0.59160780  0.91901990    -0.11600
C1414       C  0.27048666  0.55760118  0.91630344     0.10900
C1415       C  0.23529665  0.52222887  0.91375555    -0.03400
C1416       C  0.19973763  0.52255368  0.91356264    -0.06200
C1417       C  0.19823346  0.55665112  0.91621021    -0.17000
C1418       C  0.23351932  0.59186011  0.91903389     0.02000
C1419       C  0.30931185  0.55990830  0.91641156     0.11900
C1420       C  0.23528729  0.48423337  0.91146654     0.62500
H1421       H  0.17257233  0.49591823  0.91147136     0.11900
C1422       C  0.23394779  0.62988465  0.92159756     0.54700
H1423       H  0.29639388  0.61811696  0.92110412     0.07700
C1424       C  0.33339481  0.57104273  0.90554815    -0.06100
C1425       C  0.36880546  0.57061892  0.90619408    -0.06800
C1426       C  0.38178872  0.56129427  0.91745146    -0.16400
C1427       C  0.35875604  0.55272625  0.92859736    -0.02000
C1428       C  0.32250699  0.55165911  0.92777475    -0.09500
C1429       C  0.32233060  0.58439309  0.89344349     0.64700
H1430       H  0.38721160  0.57840695  0.89788362     0.10200
C1431       C  0.37157152  0.54390561  0.94122963     0.63100
H1432       H  0.30395450  0.54436255  0.93603348     0.07600
F1433       F  0.27166255  0.66137124  0.92250808    -0.19900
F1434       F  0.21530711  0.62721856  0.93291622    -0.16100
F1435       F  0.21504917  0.63733809  0.91181011    -0.19600
F1436       F  0.24863638  0.47434198  0.92223928    -0.23000
F1437       F  0.25941113  0.48835271  0.90143157    -0.24500
F1438       F  0.19816998  0.45365800  0.90863521    -0.18500
F1439       F  0.40522129  0.57659514  0.94551657    -0.21000
F1440       F  0.37859055  0.51313367  0.93982329    -0.22100
F1441       F  0.34333364  0.53370649  0.95047765    -0.19300
F1442       F  0.34894758  0.59200771  0.88382638    -0.19400
F1443       F  0.32143476  0.61834680  0.89582803    -0.23200
F1444       F  0.28590397  0.55600501  0.88914127    -0.24800
C1445       C  0.57253554  0.36334042  0.91352059    -0.11600
C1446       C  0.54389606  0.33363019  0.90587237     0.10900
C1447       C  0.51723999  0.34063184  0.89883040    -0.03400
C1448       C  0.51988960  0.37744868  0.89989745    -0.06200
C1449       C  0.54797040  0.40675747  0.90779263    -0.17000
C1450       C  0.57528343  0.40012953  0.91451525     0.02000
C1451       C  0.54035322  0.29442582  0.90645391     0.11900
C1452       C  0.48584232  0.30918667  0.89041414     0.62500
H1453       H  0.49948707  0.38340257  0.89479682     0.11900
C1454       C  0.60693828  0.43179865  0.92274949     0.54700
H1455       H  0.59223590  0.35710029  0.91893374     0.07700
C1456       C  0.56498906  0.28493244  0.89954810    -0.06100
C1457       C  0.56065751  0.24756713  0.90113044    -0.06800
C1458       C  0.53265609  0.21937335  0.90940730    -0.16400
C1459       C  0.50767946  0.22930766  0.91626181    -0.02000
C1460       C  0.51263340  0.26695384  0.91472793    -0.09500
C1461       C  0.59617884  0.31440242  0.89072517     0.64700
H1462       H  0.57994765  0.24050075  0.89598358     0.10200
C1463       C  0.47516249  0.20079401  0.92493425     0.63100
H1464       H  0.49472739  0.27556413  0.92002588     0.07600
F1465       F  0.63152368  0.41993206  0.92805719    -0.19900
F1466       F  0.58996255  0.44128112  0.93250313    -0.16100
F1467       F  0.62940758  0.46476575  0.91550501    -0.19600
F1468       F  0.46039397  0.27752923  0.89769026    -0.23000
F1469       F  0.50283293  0.29684964  0.88149008    -0.24500
F1470       F  0.46419985  0.32272399  0.88399945    -0.18500
F1471       F  0.49082875  0.19149315  0.93525483    -0.21000
F1472       F  0.45012275  0.16731344  0.91822401    -0.22100
F1473       F  0.45304451  0.21624795  0.92962845    -0.19300
F1474       F  0.61518983  0.29835680  0.88423672    -0.19400
F1475       F  0.62382638  0.34593807  0.89767309    -0.23200
F1476       F  0.57946864  0.32755365  0.88184570    -0.24800
C1477       C  0.56685574  0.78896831  0.92001559    -0.11600
C1478       C  0.52993105  0.78572897  0.91901763     0.10900
C1479       C  0.49612136  0.74843234  0.91752389    -0.03400
C1480       C  0.50064023  0.71519946  0.91732532    -0.06200
C1481       C  0.53782052  0.71859282  0.91801305    -0.17000
C1482       C  0.57148695  0.75598248  0.91954706     0.02000
C1483       C  0.52869351  0.82260050  0.91828958     0.11900
C1484       C  0.45579404  0.74396550  0.91577041     0.62500
H1485       H  0.47527279  0.68633401  0.91615185     0.11900
C1486       C  0.61216133  0.76116577  0.92067858     0.54700
H1487       H  0.59228672  0.81793987  0.92083527     0.07700
C1488       C  0.53192925  0.84494315  0.92916536    -0.06100
C1489       C  0.53426554  0.88142033  0.92750830    -0.06800
C1490       C  0.53430505  0.89655173  0.91536755    -0.16400
C1491       C  0.53114534  0.87379240  0.90444958    -0.02000
C1492       C  0.52855715  0.83726755  0.90620148    -0.09500
C1493       C  0.53332029  0.83046981  0.94243807     0.64700
H1494       H  0.53681689  0.89879339  0.93577625     0.10200
C1495       C  0.53035078  0.88723917  0.89095606     0.63100
H1496       H  0.52722710  0.81989510  0.89806866     0.07600
F1497       F  0.63996169  0.79923099  0.92378719    -0.19900
F1498       F  0.62256656  0.75220596  0.90921730    -0.16100
F1499       F  0.61276695  0.73684706  0.93005113    -0.19600
F1500       F  0.45470646  0.76229156  0.90469781    -0.23000
F1501       F  0.44735290  0.76065016  0.92588693    -0.24500
F1502       F  0.42676590  0.70506662  0.91498832    -0.18500
F1503       F  0.56637444  0.91915136  0.88807403    -0.21000
F1504       F  0.50132478  0.89698867  0.88972716    -0.22100
F1505       F  0.52269468  0.85839848  0.88208987    -0.19300
F1506       F  0.53569070  0.85636642  0.95171306    -0.19400
F1507       F  0.56568053  0.82587964  0.94372697    -0.23200
F1508       F  0.49992920  0.79494444  0.94457572    -0.24800
C1509       C  0.17088364  0.97930020  0.75156681    -0.11600
C1510       C  0.13782815  0.98318378  0.74959758     0.10900
C1511       C  0.14237286  0.02084158  0.74788370    -0.03400
C1512       C  0.18031715  0.05357328  0.74843979    -0.06200
C1513       C  0.21336755  0.04974497  0.75070434    -0.17000
C1514       C  0.20881007  0.01192205  0.75195685     0.02000
C1515       C  0.09900097  0.94714128  0.75044977     0.11900
C1516       C  0.10756476  0.02656703  0.74542020     0.62500
H1517       H  0.18444231  0.08271294  0.74743678     0.11900
C1518       C  0.24347172  0.00562543  0.75368193     0.54700
H1519       H  0.16657728  0.95026398  0.75310757     0.07700
C1520       C  0.08428839  0.91855752  0.74071011    -0.06100
C1521       C  0.04983918  0.88282789  0.74295558    -0.06800
C1522       C  0.03002871  0.87494415  0.75456576    -0.16400
C1523       C  0.04359373  0.90446862  0.76401814    -0.02000
C1524       C  0.07854148  0.93980920  0.76188941    -0.09500
C1525       C  0.10518964  0.92541445  0.72810305     0.64700
H1526       H  0.03852866  0.86024042  0.73573234     0.10200
C1527       C  0.02074701  0.89935382  0.77608897     0.63100
H1528       H  0.09061707  0.96192508  0.76925917     0.07600
F1529       F  0.23302612  0.96690867  0.75173043    -0.19900
F1530       F  0.25803603  0.01581337  0.76590187    -0.16100
F1531       F  0.27243710  0.02808854  0.74506697    -0.19600
F1532       F  0.08209579  0.01271393  0.75553697    -0.23000
F1533       F  0.08806741  0.00662315  0.73454639    -0.24500
F1534       F  0.11896603  0.06564568  0.74375837    -0.18500
F1535       F  0.02196879  0.87150591  0.78372081    -0.21000
F1536       F  0.98223076  0.88774587  0.77308684    -0.22100
F1537       F  0.03598894  0.93379812  0.78297511    -0.19300
F1538       F  0.08331193  0.89593744  0.71945723    -0.19400
F1539       F  0.14055200  0.92672226  0.72990795    -0.23200
F1540       F  0.11195368  0.96037847  0.72287071    -0.24800
C1541       C  0.60556089  0.40205174  0.76425250    -0.11600
C1542       C  0.60525349  0.43712320  0.76260542     0.10900
C1543       C  0.56929590  0.43613865  0.76047158    -0.03400
C1544       C  0.53447337  0.39970667  0.76017899    -0.06200
C1545       C  0.53449105  0.36442354  0.76190723    -0.17000
C1546       C  0.57069988  0.36549661  0.76404382     0.02000
C1547       C  0.64312297  0.47464970  0.76281092     0.11900
C1548       C  0.56788992  0.47347553  0.75828703     0.62500
H1549       H  0.50674640  0.39845603  0.75850226     0.11900
C1550       C  0.57292536  0.32843993  0.76579012     0.54700
H1551       H  0.63353499  0.40366250  0.76571995     0.07700
C1552       C  0.66106368  0.49445199  0.77425239    -0.06100
C1553       C  0.69476116  0.53177189  0.77361382    -0.06800
C1554       C  0.71129191  0.54935151  0.76193798    -0.16400
C1555       C  0.69438006  0.52827249  0.75047587    -0.02000
C1556       C  0.66048307  0.49121155  0.75118239    -0.09500
C1557       C  0.64514684  0.47575454  0.78705394     0.64700
H1558       H  0.70844310  0.54762473  0.78227580     0.10200
C1559       C  0.71180656  0.54422641  0.73749987     0.63100
H1560       H  0.64651329  0.47506673  0.74258599     0.07600
F1561       F  0.61121914  0.33606008  0.76607667    -0.19900
F1562       F  0.55386132  0.30292418  0.75585044    -0.16100
F1563       F  0.55569520  0.31077247  0.77714027    -0.19600
F1564       F  0.58702122  0.49099678  0.74715277    -0.23000
F1565       F  0.58587211  0.49914819  0.76827266    -0.24500
F1566       F  0.52984295  0.46628866  0.75729120    -0.18500
F1567       F  0.75156195  0.55736431  0.73766232    -0.21000
F1568       F  0.70543711  0.57456933  0.73426709    -0.22100
F1569       F  0.69501058  0.51599738  0.72810635    -0.19300
F1570       F  0.66498795  0.50108449  0.79698482    -0.19400
F1571       F  0.64917974  0.44310436  0.78839641    -0.23200
F1572       F  0.60600364  0.46464612  0.78797130    -0.24800
C1573       C  0.87261001  0.99732397  0.76748166    -0.11600
C1574       C  0.86775742  0.97931831  0.75567285     0.10900
C1575       C  0.86071018  0.99582620  0.74474140    -0.03400
C1576       C  0.86048618  0.03127400  0.74597983    -0.06200
C1577       C  0.86568758  0.04978911  0.75783317    -0.17000
C1578       C  0.87166264  0.03226340  0.76883974     0.02000
C1579       C  0.86820595  0.94195407  0.75531415     0.11900
C1580       C  0.85348290  0.97597892  0.73186970     0.62500
H1581       H  0.85569249  0.04458896  0.73766738     0.11900
C1582       C  0.87677280  0.04964121  0.78204512     0.54700
H1583       H  0.87664605  0.98321096  0.77572653     0.07700
C1584       C  0.90357546  0.94091305  0.75537416    -0.06100
C1585       C  0.90163176  0.90437551  0.75561144    -0.06800
C1586       C  0.86575196  0.86940154  0.75647011    -0.16400
C1587       C  0.83035492  0.87043212  0.75654894    -0.02000
C1588       C  0.83227203  0.90692870  0.75591983    -0.09500
C1589       C  0.94313913  0.97817692  0.75573404     0.64700
H1590       H  0.92829869  0.90284087  0.75569785     0.10200
C1591       C  0.79081767  0.83338063  0.75745643     0.63100
H1592       H  0.80568438  0.90856260  0.75623465     0.07600
F1593       F  0.88832961  0.03115309  0.79083062    -0.19900
F1594       F  0.84151379  0.04532421  0.78601672    -0.16100
F1595       F  0.90505818  0.08883064  0.78197828    -0.19600
F1596       F  0.82141368  0.93866510  0.73243732    -0.23000
F1597       F  0.88590514  0.97358887  0.72835712    -0.24500
F1598       F  0.84615172  0.99625265  0.72252406    -0.18500
F1599       F  0.78656669  0.81775424  0.76946343    -0.21000
F1600       F  0.78790753  0.80638810  0.74852929    -0.22100
F1601       F  0.76025911  0.84052020  0.75535965    -0.19300
F1602       F  0.97369580  0.97051757  0.75493873    -0.19400
F1603       F  0.94726279  0.99774847  0.76701138    -0.23200
F1604       F  0.94622052  0.00216488  0.74570410    -0.24800
C1605       C  0.87913803  0.43468881  0.75087186    -0.11600
C1606       C  0.88260086  0.45240773  0.76266881     0.10900
C1607       C  0.88756677  0.43534485  0.77382758    -0.03400
C1608       C  0.88988513  0.40110118  0.77272327    -0.06200
C1609       C  0.88720457  0.38356709  0.76087467    -0.17000
C1610       C  0.88178884  0.40065790  0.74968660     0.02000
C1611       C  0.88021481  0.48862568  0.76299646     0.11900
C1612       C  0.88955625  0.45280662  0.78683732     0.62500
H1613       H  0.89350672  0.38749096  0.78117315     0.11900
C1614       C  0.87765128  0.38282387  0.73657843     0.54700
H1615       H  0.87453644  0.44810324  0.74254575     0.07700
C1616       C  0.91226451  0.52528855  0.75957521    -0.06100
C1617       C  0.90755935  0.55822039  0.75990074    -0.06800
C1618       C  0.87206825  0.55564873  0.76350020    -0.16400
C1619       C  0.83989918  0.51868840  0.76693864    -0.02000
C1620       C  0.84463545  0.48568390  0.76646548    -0.09500
C1621       C  0.95131537  0.52966052  0.75568991     0.64700
H1622       H  0.93186015  0.58653929  0.75732912     0.10200
C1623       C  0.80036812  0.51343049  0.77065347     0.63100
H1624       H  0.82045479  0.45699980  0.76876549     0.07600
F1625       F  0.86854866  0.40215218  0.72736553    -0.19900
F1626       F  0.84804799  0.34415052  0.73662240    -0.16100
F1627       F  0.91248018  0.38508266  0.73314634    -0.19600
F1628       F  0.85384857  0.44955218  0.78959647    -0.23000
F1629       F  0.91818964  0.49185883  0.78704405    -0.24500
F1630       F  0.89824668  0.43387772  0.79630146    -0.18500
F1631       F  0.77294563  0.47455243  0.77277579    -0.21000
F1632       F  0.78625365  0.52705154  0.76103276    -0.22100
F1633       F  0.80394651  0.53361832  0.78174857    -0.19300
F1634       F  0.97877145  0.56813577  0.75301137    -0.19400
F1635       F  0.94661332  0.50774205  0.74492868    -0.23200
F1636       F  0.96598310  0.51700035  0.76541466    -0.24800
C1637       C  0.74763575  0.64378425  0.83112115    -0.11600
C1638       C  0.72045478  0.65678161  0.83094366     0.10900
C1639       C  0.71976146  0.67923794  0.82056144    -0.03400
C1640       C  0.74447283  0.68528631  0.81021606    -0.06200
C1641       C  0.77078207  0.67098852  0.81008867    -0.17000
C1642       C  0.77306949  0.65058020  0.82090155     0.02000
C1643       C  0.69348984  0.64628946  0.84191493     0.11900
C1644       C  0.69350644  0.69715349  0.82042900     0.62500
H1645       H  0.74331469  0.70135529  0.80203307     0.11900
C1646       C  0.80240897  0.63657321  0.82190411     0.54700
H1647       H  0.74831056  0.62764894  0.83936432     0.07700
C1648       C  0.66016899  0.60861503  0.84309459    -0.06100
C1649       C  0.63799565  0.59922249  0.85429975    -0.06800
C1650       C  0.64803349  0.62618644  0.86432060    -0.16400
C1651       C  0.68128398  0.66420732  0.86301012    -0.02000
C1652       C  0.70357356  0.67336679  0.85181632    -0.09500
C1653       C  0.64863357  0.57826196  0.83263130     0.64700
H1654       H  0.61269164  0.57033090  0.85538756     0.10200
C1655       C  0.69431636  0.69462481  0.87349117     0.63100
H1656       H  0.72966736  0.70169428  0.85075618     0.07600
F1657       F  0.79204669  0.60603509  0.81353340    -0.19900
F1658       F  0.80364494  0.62329035  0.83399374    -0.16100
F1659       F  0.83948657  0.66693699  0.81914874    -0.19600
F1660       F  0.70242179  0.72198456  0.83069708    -0.23000
F1661       F  0.65471763  0.66808174  0.82107547    -0.24500
F1662       F  0.69832822  0.71874622  0.80951577    -0.18500
F1663       F  0.72957201  0.72781081  0.87071980    -0.21000
F1664       F  0.69909245  0.67925549  0.88473936    -0.22100
F1665       F  0.66664378  0.70594870  0.87505936    -0.19300
F1666       F  0.61374361  0.54450289  0.83523886    -0.19400
F1667       F  0.67732208  0.56820971  0.83129120    -0.23200
F1668       F  0.64413375  0.59319072  0.82125544    -0.24800
C1669       C  0.60590867  0.06058146  0.98812588    -0.11600
C1670       C  0.57175046  0.05313903  0.99443651     0.10900
C1671       C  0.53611106  0.03889414  0.98764150    -0.03400
C1672       C  0.53621169  0.03343082  0.97450990    -0.06200
C1673       C  0.57068672  0.04231635  0.96803714    -0.17000
C1674       C  0.60599418  0.05507879  0.97495297     0.02000
C1675       C  0.57381494  0.06028316  0.00823379     0.11900
C1676       C  0.49841195  0.03068148  0.99413871     0.62500
H1677       H  0.50956877  0.02413184  0.96907182     0.11900
C1678       C  0.64344057  0.06254597  0.96857515     0.54700
H1679       H  0.63273133  0.07146840  0.99359886     0.07700
C1680       C  0.57280135  0.03290540  0.01702344    -0.06100
C1681       C  0.57023816  0.03940034  0.02993646    -0.06800
C1682       C  0.56570540  0.07072609  0.03436703    -0.16400
C1683       C  0.56757931  0.09867844  0.02533722    -0.02000
C1684       C  0.57333256  0.09354818  0.01247203    -0.09500
C1685       C  0.57294331  0.99620073  0.01274912     0.64700
H1686       H  0.56994965  0.01841100  0.03660940     0.10200
C1687       C  0.56059365  0.13197596  0.02873023     0.63100
H1688       H  0.57463413  0.11406518  0.00537467     0.07600
F1689       F  0.67114683  0.06568078  0.97737546    -0.19900
F1690       F  0.65916722  0.09703702  0.96177496    -0.16100
F1691       F  0.63575904  0.03196036  0.96047145    -0.19600
F1692       F  0.50151565  0.06539100  0.99819873    -0.23000
F1693       F  0.49121312  0.00640976  0.00448003    -0.24500
F1694       F  0.46642452  0.01258956  0.98602872    -0.18500
F1695       F  0.56560332  0.15595216  0.01844403    -0.21000
F1696       F  0.58655347  0.15507662  0.03809874    -0.22100
F1697       F  0.52243924  0.11653907  0.03275972    -0.19300
F1698       F  0.56859019  0.97179784  0.02283438    -0.19400
F1699       F  0.60795089  0.00638465  0.00687486    -0.23200
F1700       F  0.54243977  0.97528434  0.00431272    -0.24800
C1701       C  0.29612740  0.96466205  0.17315430    -0.11600
C1702       C  0.31970412  0.94852250  0.17033900     0.10900
C1703       C  0.32165388  0.92190945  0.17888925    -0.03400
C1704       C  0.29991662  0.91263823  0.19015908    -0.06200
C1705       C  0.27612788  0.92883111  0.19317933    -0.17000
C1706       C  0.27351090  0.95478870  0.18427664     0.02000
C1707       C  0.34432247  0.96244358  0.15880186     0.11900
C1708       C  0.34680760  0.90356205  0.17615415     0.62500
H1709       H  0.30214110  0.89299183  0.19685502     0.11900
C1710       C  0.24638117  0.97131880  0.18605913     0.54700
H1711       H  0.29587544  0.98549782  0.16649785     0.07700
C1712       C  0.32927074  0.94835867  0.14647218    -0.06100
C1713       C  0.35487364  0.96329132  0.13607938    -0.06800
C1714       C  0.39441636  0.99167730  0.13774187    -0.16400
C1715       C  0.40941823  0.00538779  0.15004891    -0.02000
C1716       C  0.38375225  0.99116758  0.16038475    -0.09500
C1717       C  0.28654931  0.91780123  0.14432457     0.64700
H1718       H  0.34428024  0.95293091  0.12654881     0.10200
C1719       C  0.45263359  0.03371962  0.15224409     0.63100
H1720       H  0.39441726  0.00179542  0.16988607     0.07600
F1721       F  0.24534421  0.99162130  0.17545286    -0.19900
F1722       F  0.25888458  0.99701494  0.19619921    -0.16100
F1723       F  0.20870718  0.94106282  0.18812896    -0.19600
F1724       F  0.38578524  0.93218792  0.17554380    -0.23000
F1725       F  0.33565769  0.88377705  0.16470710    -0.24500
F1726       F  0.34326287  0.87721185  0.18547552    -0.18500
F1727       F  0.46350343  0.06831790  0.14592868    -0.21000
F1728       F  0.47428320  0.01756015  0.14774513    -0.22100
F1729       F  0.46148163  0.04222487  0.16499625    -0.19300
F1730       F  0.27841251  0.90749993  0.13164304    -0.19400
F1731       F  0.26282675  0.93223718  0.14821617    -0.23200
F1732       F  0.27730483  0.88438605  0.15116067    -0.24800
C1733       C  0.49763032  0.52502176  0.99014264    -0.11600
C1734       C  0.46345538  0.49069274  0.99351439     0.10900
C1735       C  0.43557177  0.46802766  0.98406377    -0.03400
C1736       C  0.44376133  0.48024005  0.97131920    -0.06200
C1737       C  0.47829866  0.51449924  0.96794927    -0.17000
C1738       C  0.50603978  0.53702336  0.97746382     0.02000
C1739       C  0.45693760  0.48198271  0.00725051     0.11900
C1740       C  0.39753948  0.43136235  0.98743484     0.62500
H1741       H  0.42331969  0.46311207  0.96385224     0.11900
C1742       C  0.54526778  0.57239479  0.97422892     0.54700
H1743       H  0.51795264  0.54226600  0.99762198     0.07700
C1744       C  0.47762891  0.46758942  0.01434668    -0.06100
C1745       C  0.47597279  0.46784414  0.02769132    -0.06800
C1746       C  0.45569637  0.48348806  0.03411567    -0.16400
C1747       C  0.43364747  0.49648658  0.02680692    -0.02000
C1748       C  0.43455483  0.49499769  0.01350618    -0.09500
C1749       C  0.50330356  0.45434744  0.00788634     0.64700
H1750       H  0.49250080  0.45780241  0.03322033     0.10200
C1751       C  0.41111907  0.51428496  0.03269772     0.63100
H1752       H  0.41970239  0.50646365  0.00775511     0.07600
F1753       F  0.56515049  0.56148652  0.96594455    -0.19900
F1754       F  0.56857453  0.58859949  0.98490156    -0.16100
F1755       F  0.53964771  0.60089162  0.96866227    -0.19600
F1756       F  0.37502614  0.44104052  0.99492901    -0.23000
F1757       F  0.40534238  0.40564615  0.99400915    -0.24500
F1758       F  0.37582097  0.41234322  0.97671904    -0.18500
F1759       F  0.39377645  0.52643288  0.02366082    -0.21000
F1760       F  0.43637720  0.54670692  0.03982598    -0.22100
F1761       F  0.38150522  0.48671394  0.04018391    -0.19300
F1762       F  0.51636335  0.43634484  0.01633070    -0.19400
F1763       F  0.53564028  0.48628997  0.00273578    -0.23200
F1764       F  0.48259133  0.42797221  0.99831442    -0.24800
C1765       C  0.53554838  0.84698979  0.08996931    -0.11600
C1766       C  0.50289025  0.81473448  0.09521849     0.10900
C1767       C  0.47194540  0.81889934  0.10010943    -0.03400
C1768       C  0.47394538  0.85535742  0.09892596    -0.06200
C1769       C  0.50568363  0.88747232  0.09295992    -0.17000
C1770       C  0.53741542  0.88328061  0.08849990     0.02000
C1771       C  0.50103873  0.77636877  0.09461308     0.11900
C1772       C  0.43697425  0.78486815  0.10645348     0.62500
H1773       H  0.45006974  0.85871962  0.10243641     0.11900
C1774       C  0.57306553  0.91627308  0.08208716     0.54700
H1775       H  0.55897497  0.84280980  0.08649368     0.07700
C1776       C  0.49035047  0.75425043  0.08324823    -0.06100
C1777       C  0.48997628  0.71851018  0.08314730    -0.06800
C1778       C  0.50029945  0.70461119  0.09394510    -0.16400
C1779       C  0.51187728  0.72727802  0.10526121    -0.02000
C1780       C  0.51183932  0.76292112  0.10537720    -0.09500
C1781       C  0.47983707  0.76862888  0.07124558     0.64700
H1782       H  0.48182838  0.70112644  0.07454408     0.10200
C1783       C  0.52610240  0.71508671  0.11693072     0.63100
H1784       H  0.52073842  0.78096105  0.11383696     0.07600
F1785       F  0.56250575  0.92374633  0.07031295    -0.19900
F1786       F  0.60217825  0.90696992  0.08021871    -0.16100
F1787       F  0.58868821  0.94961296  0.08951879    -0.19600
F1788       F  0.44924292  0.77379325  0.11722049    -0.23000
F1789       F  0.41923083  0.75338675  0.09822573    -0.24500
F1790       F  0.40920668  0.79457689  0.11004000    -0.18500
F1791       F  0.55625855  0.70859092  0.11361977    -0.21000
F1792       F  0.49577597  0.68133426  0.12205580    -0.22100
F1793       F  0.54000230  0.74358452  0.12628081    -0.19300
F1794       F  0.46719457  0.74115087  0.06159497    -0.19400
F1795       F  0.51223445  0.80226680  0.06694191    -0.23200
F1796       F  0.45017049  0.77662466  0.07370893    -0.24800
C1797       C  0.49095363  0.32474138  0.07493941    -0.11600
C1798       C  0.50154691  0.31264365  0.08609073     0.10900
C1799       C  0.51474419  0.33753213  0.09683283    -0.03400
C1800       C  0.51542858  0.37331880  0.09618565    -0.06200
C1801       C  0.50391700  0.38518295  0.08517945    -0.17000
C1802       C  0.49167962  0.36075024  0.07428006     0.02000
C1803       C  0.49951193  0.27411701  0.08620997     0.11900
C1804       C  0.52844465  0.32664659  0.10890494     0.62500
H1805       H  0.52536301  0.39269987  0.10433222     0.11900
C1806       C  0.47835439  0.37189014  0.06218652     0.54700
H1807       H  0.48193047  0.30553486  0.06675800     0.07700
C1808       C  0.46386883  0.23858462  0.08791168    -0.06100
C1809       C  0.46477261  0.20340621  0.08845305    -0.06800
C1810       C  0.50002073  0.20297833  0.08742473    -0.16400
C1811       C  0.53574811  0.23878693  0.08596539    -0.02000
C1812       C  0.53460235  0.27368382  0.08508609    -0.09500
C1813       C  0.42526607  0.23796079  0.08932977     0.64700
H1814       H  0.43786381  0.17582449  0.08962783     0.10200
C1815       C  0.57516035  0.24063838  0.08581819     0.63100
H1816       H  0.56136025  0.30125706  0.08368326     0.07600
F1817       F  0.46305299  0.34171477  0.05340820    -0.19900
F1818       F  0.50975578  0.40386435  0.05664293    -0.16100
F1819       F  0.44956401  0.38096036  0.06494057    -0.19600
F1820       F  0.56295649  0.32677452  0.10662224    -0.23000
F1821       F  0.50042050  0.28987932  0.11296202    -0.24500
F1822       F  0.53530344  0.35278578  0.11866729    -0.18500
F1823       F  0.57946245  0.22555626  0.07452270    -0.21000
F1824       F  0.57780148  0.21943259  0.09587478    -0.22100
F1825       F  0.60595313  0.27866180  0.08694195    -0.19300
F1826       F  0.39445108  0.20052322  0.09143904    -0.19400
F1827       F  0.41701206  0.25202987  0.07840386    -0.23200
F1828       F  0.42748886  0.26109295  0.09949531    -0.24800
C1829       C  0.90801534  0.86686508  0.24119650    -0.11600
C1830       C  0.92097335  0.86403343  0.25337943     0.10900
C1831       C  0.89729511  0.85963357  0.26396586    -0.03400
C1832       C  0.86099621  0.85787649  0.26195668    -0.06200
C1833       C  0.84746316  0.86032550  0.24971851    -0.17000
C1834       C  0.87155667  0.86472244  0.23909629     0.02000
C1835       C  0.95951307  0.86560510  0.25474068     0.11900
C1836       C  0.91072188  0.85727471  0.27734534     0.62500
H1837       H  0.84286563  0.85469548  0.27004345     0.11900
C1838       C  0.85960240  0.86776239  0.22557397     0.54700
H1839       H  0.92686069  0.87050360  0.23326890     0.07700
C1840       C  0.96376741  0.83278593  0.25212413    -0.06100
C1841       C  0.00110849  0.83665193  0.25325355    -0.06800
C1842       C  0.03447270  0.87210544  0.25682948    -0.16400
C1843       C  0.02983470  0.90454112  0.25997990    -0.02000
C1844       C  0.99237589  0.90074322  0.25869153    -0.09500
C1845       C  0.92914065  0.79393001  0.24795066     0.64700
H1846       H  0.00472470  0.81190514  0.25099653     0.10200
C1847       C  0.06413182  0.94327243  0.26432346     0.63100
H1848       H  0.98838461  0.92542429  0.26065423     0.07600
F1849       F  0.82763944  0.83251401  0.22195187    -0.19900
F1850       F  0.88932019  0.87641018  0.21702029    -0.16100
F1851       F  0.85030138  0.89713987  0.22476032    -0.19600
F1852       F  0.94337236  0.89250486  0.28053524    -0.23000
F1853       F  0.92014136  0.82795886  0.27807302    -0.24500
F1854       F  0.88203070  0.84934196  0.28622474    -0.18500
F1855       F  0.05339905  0.97132629  0.26619723    -0.21000
F1856       F  0.09316474  0.95726949  0.25526253    -0.22100
F1857       F  0.07875766  0.93819056  0.27570636    -0.19300
F1858       F  0.93912830  0.76506240  0.24685845    -0.19400
F1859       F  0.91551818  0.79810688  0.23625813    -0.23200
F1860       F  0.89934676  0.78144479  0.25670743    -0.24800
C1861       C  0.47151253  0.86627260  0.24992676    -0.11600
C1862       C  0.46305760  0.87478518  0.23778538     0.10900
C1863       C  0.48811897  0.87937356  0.22758197    -0.03400
C1864       C  0.52134790  0.87565582  0.22998429    -0.06200
C1865       C  0.53027866  0.86753780  0.24220215    -0.17000
C1866       C  0.50421319  0.86175993  0.25231535     0.02000
C1867       C  0.42784368  0.87914525  0.23628808     0.11900
C1868       C  0.47990797  0.88834050  0.21424717     0.62500
H1869       H  0.54109305  0.87969798  0.22229789     0.11900
C1870       C  0.50964429  0.84940603  0.26547073     0.54700
H1871       H  0.45195147  0.86308072  0.25758461     0.07700
C1872       C  0.38949889  0.84634109  0.23606547    -0.06100
C1873       C  0.35747541  0.85264934  0.23644507    -0.06800
C1874       C  0.36247728  0.89041227  0.23714052    -0.16400
C1875       C  0.40074672  0.92329827  0.23645684    -0.02000
C1876       C  0.43293238  0.91700427  0.23620299    -0.09500
C1877       C  0.38224719  0.80474654  0.23588122     0.64700
H1878       H  0.32803504  0.82780567  0.23682664     0.10200
C1879       C  0.40762373  0.96467794  0.23580083     0.63100
H1880       H  0.46248818  0.94169726  0.23633713     0.07600
F1881       F  0.47732345  0.83864415  0.27306583    -0.19900
F1882       F  0.54161038  0.88010161  0.27136205    -0.16100
F1883       F  0.51508869  0.81751784  0.26454726    -0.19600
F1884       F  0.48252895  0.92456757  0.21405394    -0.23000
F1885       F  0.44275868  0.86031825  0.21036948    -0.24500
F1886       F  0.50630226  0.88882580  0.20555884    -0.18500
F1887       F  0.39907860  0.97500529  0.24735694    -0.21000
F1888       F  0.38406677  0.96706588  0.22644440    -0.22100
F1889       F  0.44614082  0.99150511  0.23294007    -0.19300
F1890       F  0.34304045  0.77764355  0.23396891    -0.19400
F1891       F  0.39381701  0.79642881  0.24732753    -0.23200
F1892       F  0.40311630  0.80028857  0.22619381    -0.24800
C1893       C  0.63926863  0.71540682  0.18061459    -0.11600
C1894       C  0.61505046  0.72114055  0.17214458     0.10900
C1895       C  0.60388842  0.74916761  0.17503510    -0.03400
C1896       C  0.61819217  0.77126278  0.18628047    -0.06200
C1897       C  0.64270220  0.76588496  0.19485305    -0.17000
C1898       C  0.65331919  0.73713470  0.19197307     0.02000
C1899       C  0.59995001  0.69586963  0.16062670     0.11900
C1900       C  0.57643448  0.75523837  0.16634260     0.62500
H1901       H  0.60991608  0.79288413  0.18852047     0.11900
C1902       C  0.67831575  0.72825564  0.20089753     0.54700
H1903       H  0.64678080  0.69329378  0.17826037     0.07700
C1904       C  0.62180639  0.70427431  0.14930130    -0.06100
C1905       C  0.60416471  0.68052102  0.13854837    -0.06800
C1906       C  0.56577488  0.64847156  0.13882406    -0.16400
C1907       C  0.54464722  0.63923085  0.15038832    -0.02000
C1908       C  0.56232312  0.66309051  0.16109905    -0.09500
C1909       C  0.66385132  0.73754555  0.14867972     0.64700
H1910       H  0.62038581  0.68679301  0.12977999     0.10200
C1911       C  0.50358103  0.60465561  0.15152946     0.63100
H1912       H  0.54647345  0.65691231  0.16994372     0.07600
F1913       F  0.71605244  0.75974665  0.20125390    -0.19900
F1914       F  0.68034202  0.69583580  0.19701888    -0.16100
F1915       F  0.66256701  0.72069944  0.21296328    -0.19600
F1916       F  0.54020183  0.72157594  0.16595117    -0.23000
F1917       F  0.59147689  0.76407192  0.15420059    -0.24500
F1918       F  0.57111560  0.78549347  0.17048261    -0.18500
F1919       F  0.49136220  0.59715862  0.16402586    -0.21000
F1920       F  0.50195771  0.57133187  0.14668804    -0.22100
F1921       F  0.47809083  0.61274097  0.14494034    -0.19300
F1922       F  0.67877103  0.74261173  0.13652473    -0.19400
F1923       F  0.68692214  0.72952110  0.15666614    -0.23200
F1924       F  0.66624246  0.77221911  0.15240644    -0.24800
C1925       C  0.14821853  0.14369460  0.25585742    -0.11600
C1926       C  0.18051041  0.14201716  0.25124840     0.10900
C1927       C  0.21296830  0.17619688  0.24638403    -0.03400
C1928       C  0.21228834  0.21150886  0.24655112    -0.06200
C1929       C  0.17986740  0.21346117  0.25108795    -0.17000
C1930       C  0.14702040  0.17875560  0.25578355     0.02000
C1931       C  0.17879780  0.10356581  0.25102565     0.11900
C1932       C  0.24769559  0.17501676  0.24073826     0.62500
H1933       H  0.23694975  0.23790984  0.24286969     0.11900
C1934       C  0.10968967  0.17773289  0.25982091     0.54700
H1935       H  0.12349169  0.11686927  0.25927859     0.07700
C1936       C  0.18971124  0.08912261  0.26165588    -0.06100
C1937       C  0.19097197  0.05430560  0.26032572    -0.06800
C1938       C  0.18126205  0.03350874  0.24878996    -0.16400
C1939       C  0.16753650  0.04664190  0.23844164    -0.02000
C1940       C  0.16654440  0.08159656  0.23978697    -0.09500
C1941       C  0.19986859  0.11044416  0.27431603     0.64700
H1942       H  0.20031135  0.04340160  0.26826958     0.10200
C1943       C  0.15397700  0.02417513  0.22601851     0.63100
H1944       H  0.15729252  0.09281373  0.23190180     0.07600
F1945       F  0.11642219  0.20010068  0.27062467    -0.19900
F1946       F  0.07995843  0.14015316  0.26247802    -0.16100
F1947       F  0.09688982  0.19202246  0.25006146    -0.19600
F1948       F  0.23562319  0.15059976  0.23026715    -0.23000
F1949       F  0.26380973  0.16119459  0.24961214    -0.24500
F1950       F  0.27669455  0.21165088  0.23687592    -0.18500
F1951       F  0.12884918  0.98485415  0.22834297    -0.21000
F1952       F  0.18607411  0.02881658  0.21935813    -0.22100
F1953       F  0.13414916  0.03741830  0.21845154    -0.19300
F1954       F  0.21000391  0.09161901  0.28340789    -0.19400
F1955       F  0.16794772  0.11235250  0.27872230    -0.23200
F1956       F  0.23105029  0.14798922  0.27292615    -0.24800
C1957       C  0.15117748  0.57929093  0.24456957    -0.11600
C1958       C  0.18664666  0.61106124  0.24057477     0.10900
C1959       C  0.21652061  0.60445095  0.23602289    -0.03400
C1960       C  0.20974568  0.56583048  0.23568908    -0.06200
C1961       C  0.17441176  0.53382583  0.23993329    -0.17000
C1962       C  0.14407068  0.54063579  0.24411401     0.02000
C1963       C  0.19197501  0.65105822  0.24174664     0.11900
C1964       C  0.25569586  0.63820624  0.23182947     0.62500
H1965       H  0.23273626  0.56055358  0.23251074     0.11900
C1966       C  0.10399803  0.50760737  0.24792419     0.54700
H1967       H  0.12903152  0.58518169  0.24821213     0.07700
C1968       C  0.17616851  0.66622769  0.23274957    -0.06100
C1969       C  0.18289678  0.70447780  0.23443682    -0.06800
C1970       C  0.20269989  0.72695770  0.24516138    -0.16400
C1971       C  0.21685830  0.71096479  0.25450201    -0.02000
C1972       C  0.21162938  0.67334095  0.25250535    -0.09500
C1973       C  0.15160320  0.64185935  0.22156917     0.64700
H1974       H  0.17148897  0.71675855  0.22755981     0.10200
C1975       C  0.23756335  0.73336000  0.26647315     0.63100
H1976       H  0.22227103  0.66056292  0.25946727     0.07600
F1977       F  0.07689213  0.52003303  0.24873599    -0.19900
F1978       F  0.10638999  0.49327303  0.25968400    -0.16100
F1979       F  0.09026448  0.47798884  0.23897443    -0.19600
F1980       F  0.27461778  0.66246085  0.24204837    -0.23000
F1981       F  0.25005779  0.65949008  0.22244546    -0.24500
F1982       F  0.27987915  0.62532414  0.22704463    -0.18500
F1983       F  0.21133073  0.73705977  0.27414803    -0.21000
F1984       F  0.26795279  0.77006396  0.26332413    -0.22100
F1985       F  0.25306457  0.71441729  0.27342920    -0.19300
F1986       F  0.13914747  0.66229079  0.21398270    -0.19400
F1987       F  0.11870123  0.60877790  0.22590997    -0.23200
F1988       F  0.17318108  0.63078230  0.21416454    -0.24800
C1989       C  0.92262353  0.05285045  0.25301363    -0.11600
C1990       C  0.92356563  0.08874486  0.25182635     0.10900
C1991       C  0.88800598  0.08930151  0.25106497    -0.03400
C1992       C  0.85241068  0.05376180  0.25196813    -0.06200
C1993       C  0.85117103  0.01767903  0.25309350    -0.17000
C1994       C  0.88684754  0.01701928  0.25340898     0.02000
C1995       C  0.96194769  0.12562916  0.25088775     0.11900
C1996       C  0.88767575  0.12709316  0.24852416     0.62500
H1997       H  0.82497348  0.05371067  0.25128673     0.11900
C1998       C  0.88709000  0.97867607  0.25332259     0.54700
H1999       H  0.95020910  0.05312893  0.25331856     0.07700
C2000       C  0.98124858  0.14862817  0.26168331    -0.06100
C2001       C  0.01315783  0.18667464  0.25989870    -0.06800
C2002       C  0.02695451  0.20196642  0.24769897    -0.16400
C2003       C  0.00993783  0.17697506  0.23697999    -0.02000
C2004       C  0.97726664  0.13939592  0.23879948    -0.09500
C2005       C  0.96790720  0.13287379  0.27499332     0.64700
H2006       H  0.02723762  0.20504413  0.26809174     0.10200
C2007       C  0.02626588  0.18913330  0.22368922     0.63100
H2008       H  0.96248594  0.12075372  0.23071297     0.07600
F2009       F  0.92454975  0.98449676  0.25208531    -0.19900
F2010       F  0.86489494  0.95595456  0.24319957    -0.16100
F2011       F  0.87167735  0.95869000  0.26452466    -0.19600
F2012       F  0.90131794  0.14005991  0.23640592    -0.23000
F2013       F  0.91130748  0.15570687  0.25714990    -0.24500
F2014       F  0.85040475  0.12193221  0.24941903    -0.18500
F2015       F  0.06624541  0.20343736  0.22385360    -0.21000
F2016       F  0.01856206  0.21752952  0.21920466    -0.22100
F2017       F  0.00962287  0.15799194  0.21527152    -0.19300
F2018       F  0.99056235  0.15983358  0.28421771    -0.19400
F2019       F  0.97074069  0.09964853  0.27674173    -0.23200
F2020       F  0.92946497  0.12342546  0.27672038    -0.24800
C2021       C  0.37825434  0.59978886  0.24416886    -0.11600
C2022       C  0.40378909  0.60214259  0.23458230     0.10900
C2023       C  0.39168392  0.57053435  0.22597297    -0.03400
C2024       C  0.35444550  0.53701037  0.22751486    -0.06200
C2025       C  0.32972210  0.53393497  0.23752247    -0.17000
C2026       C  0.34123019  0.56628701  0.24575610     0.02000
C2027       C  0.44423948  0.63658002  0.23469210     0.11900
C2028       C  0.41843428  0.57170333  0.21547796     0.62500
H2029       H  0.34499864  0.51216818  0.22122855     0.11900
C2030       C  0.31509768  0.56534069  0.25638473     0.54700
H2031       H  0.38825727  0.62402848  0.25075008     0.07700
C2032       C  0.45307724  0.67371347  0.23003144    -0.06100
C2033       C  0.49148155  0.70556054  0.23162628    -0.06800
C2034       C  0.52121570  0.70166847  0.23787820    -0.16400
C2035       C  0.51215637  0.66370983  0.24214599    -0.02000
C2036       C  0.47371890  0.63216180  0.24057023    -0.09500
C2037       C  0.42171908  0.67982849  0.22374899     0.64700
H2038       H  0.49807671  0.73420553  0.22833981     0.10200
C2039       C  0.54245573  0.65567015  0.24823599     0.63100
H2040       H  0.46593104  0.60350344  0.24420843     0.07600
F2041       F  0.32789724  0.60227576  0.26134189    -0.19900
F2042       F  0.31529481  0.54173736  0.26603121    -0.16100
F2043       F  0.27721363  0.55097175  0.25197930    -0.19600
F2044       F  0.45033366  0.57104640  0.22071161    -0.23000
F2045       F  0.43148857  0.60538265  0.20836728    -0.24500
F2046       F  0.39943042  0.54004838  0.20734082    -0.18500
F2047       F  0.55237068  0.67250855  0.26017639    -0.21000
F2048       F  0.57533360  0.67058547  0.24067980    -0.22100
F2049       F  0.52863486  0.61601176  0.24964758    -0.19300
F2050       F  0.43723339  0.71682996  0.21854012    -0.19400
F2051       F  0.39413813  0.67526690  0.23263031    -0.23200
F2052       F  0.40335008  0.65288519  0.21410813    -0.24800
C2053       C  0.98118232  0.57692812  0.01326469    -0.11600
C2054       C  0.01534381  0.57882986  0.00854605     0.10900
C2055       C  0.04252838  0.57771130  0.01714415    -0.03400
C2056       C  0.03423434  0.57413847  0.03021960    -0.06200
C2057       C  0.99972196  0.57143921  0.03497884    -0.17000
C2058       C  0.97267483  0.57286947  0.02638462     0.02000
C2059       C  0.02171614  0.58101352  0.99453683     0.11900
C2060       C  0.08019802  0.58035921  0.01250252     0.62500
H2061       H  0.05484285  0.57337703  0.03690886     0.11900
C2062       C  0.93553039  0.57090677  0.03107830     0.54700
H2063       H  0.96100426  0.57827917  0.00653264     0.07700
C2064       C  0.00328935  0.54721387  0.98674930    -0.06100
C2065       C  0.01253745  0.55082096  0.97375001    -0.06800
C2066       C  0.03932729  0.58689300  0.96833607    -0.16400
C2067       C  0.05704906  0.62082695  0.97600667    -0.02000
C2068       C  0.04785204  0.61733169  0.98905157    -0.09500
C2069       C  0.97378787  0.50757091  0.99213113     0.64700
H2070       H  0.99846753  0.52541117  0.96760653     0.10200
C2071       C  0.08485848  0.66042017  0.97031748     0.63100
H2072       H  0.06120168  0.64291560  0.99512197     0.07600
F2073       F  0.91160342  0.53475460  0.03645684    -0.19900
F2074       F  0.91483605  0.57607653  0.02132511    -0.16100
F2075       F  0.94466496  0.59979238  0.04005556    -0.19600
F2076       F  0.10358587  0.61634153  0.00690187    -0.23000
F2077       F  0.07179198  0.55120799  0.00370565    -0.24500
F2078       F  0.10136842  0.57624420  0.02233006    -0.18500
F2079       F  0.06606995  0.66874794  0.96069758    -0.21000
F2080       F  0.11702345  0.65999671  0.96538432    -0.22100
F2081       F  0.09794066  0.69002523  0.97926897    -0.19300
F2082       F  0.96096060  0.47827818  0.98307119    -0.19400
F2083       F  0.94152062  0.50879979  0.99654713    -0.23200
F2084       F  0.99048101  0.49777547  0.00202757    -0.24800
C2085       C  0.21261719  0.53249753  0.10880188    -0.11600
C2086       C  0.23046259  0.53305888  0.09729900     0.10900
C2087       C  0.21196094  0.53196032  0.08564194    -0.03400
C2088       C  0.17687486  0.53279213  0.08592446    -0.06200
C2089       C  0.15943481  0.53363504  0.09742916    -0.17000
C2090       C  0.17716654  0.53280499  0.10912135     0.02000
C2091       C  0.26845886  0.53427652  0.09776181     0.11900
C2092       C  0.22886357  0.52928743  0.07299699     0.62500
H2093       H  0.16276191  0.53291652  0.07707497     0.11900
C2094       C  0.15889898  0.53177566  0.12186873     0.54700
H2095       H  0.22716975  0.53244263  0.11756147     0.07700
C2096       C  0.30422742  0.56991355  0.09886690    -0.06100
C2097       C  0.33933008  0.56895381  0.09845934    -0.06800
C2098       C  0.33946661  0.53362989  0.09701024    -0.16400
C2099       C  0.30331660  0.49773626  0.09663999    -0.02000
C2100       C  0.26832036  0.49884799  0.09706967    -0.09500
C2101       C  0.30515844  0.60866675  0.10035417     0.64700
H2102       H  0.36707818  0.59605397  0.09886584     0.10200
C2103       C  0.30113321  0.45831756  0.09570712     0.63100
H2104       H  0.24034932  0.47200396  0.09648948     0.07600
F2105       F  0.16221450  0.56771861  0.12426874    -0.19900
F2106       F  0.17717248  0.52362849  0.13171406    -0.16100
F2107       F  0.11982222  0.50306680  0.12183515    -0.19600
F2108       F  0.23035789  0.49507627  0.07252064    -0.23000
F2109       F  0.26622606  0.56073573  0.07156696    -0.24500
F2110       F  0.20636676  0.52916711  0.06281664    -0.18500
F2111       F  0.26422781  0.42793279  0.09873861    -0.21000
F2112       F  0.32759710  0.45671953  0.10403202    -0.22100
F2113       F  0.30933698  0.45251081  0.08343273    -0.19300
F2114       F  0.34303981  0.63976939  0.10140651    -0.19400
F2115       F  0.28522757  0.60791454  0.11118407    -0.23200
F2116       F  0.28766218  0.61529365  0.08995862    -0.24800
C2117       C  0.79841123  0.56141644  0.07392650    -0.11600
C2118       C  0.77456152  0.55107201  0.08471122     0.10900
C2119       C  0.78702781  0.54106459  0.09606028    -0.03400
C2120       C  0.82363299  0.54289549  0.09630448    -0.06200
C2121       C  0.84774412  0.55343907  0.08555431    -0.17000
C2122       C  0.83498767  0.56296327  0.07413013     0.02000
C2123       C  0.73670094  0.55110911  0.08390483     0.11900
C2124       C  0.76168223  0.52833584  0.10786327     0.62500
H2125       H  0.83347897  0.53528778  0.10491553     0.11900
C2126       C  0.86027365  0.57597958  0.06233299     0.54700
H2127       H  0.78804506  0.56838990  0.06530626     0.07700
C2128       C  0.73494391  0.58593226  0.08508013    -0.06100
C2129       C  0.69801211  0.58347929  0.08513600    -0.06800
C2130       C  0.66293896  0.54756137  0.08387514    -0.16400
C2131       C  0.66481812  0.51272685  0.08245166    -0.02000
C2132       C  0.70184650  0.51532484  0.08231184    -0.09500
C2133       C  0.77199644  0.62549897  0.08628680     0.64700
H2134       H  0.69619900  0.60980945  0.08617709     0.10200
C2135       C  0.62805634  0.47275508  0.08168689     0.63100
H2136       H  0.70395231  0.48917157  0.08122480     0.07600
F2137       F  0.89715843  0.60660352  0.06533613    -0.19900
F2138       F  0.84459488  0.58863902  0.05289653    -0.16100
F2139       F  0.86343524  0.54519106  0.05748925    -0.19600
F2140       F  0.72676308  0.49445540  0.10535996    -0.23000
F2141       F  0.75391208  0.55733461  0.11154988    -0.24500
F2142       F  0.77972396  0.52086751  0.11794542    -0.18500
F2143       F  0.63661886  0.44275872  0.08207310    -0.21000
F2144       F  0.60829345  0.46942525  0.07044620    -0.22100
F2145       F  0.60392098  0.46782283  0.09182737    -0.19300
F2146       F  0.76381074  0.65539196  0.08808212    -0.19400
F2147       F  0.79379316  0.63343007  0.07534043    -0.23200
F2148       F  0.79415221  0.62546178  0.09651882    -0.24800
C2149       C  0.28542726  0.82002250  0.08357484    -0.11600
C2150       C  0.27402050  0.80464590  0.09578145     0.10900
C2151       C  0.29711481  0.82539326  0.10639728    -0.03400
C2152       C  0.33046295  0.86221199  0.10440466    -0.06200
C2153       C  0.34129311  0.87873436  0.09218730    -0.17000
C2154       C  0.31827964  0.85708619  0.08151793     0.02000
C2155       C  0.23650648  0.76744789  0.09701342     0.11900
C2156       C  0.28648871  0.80868148  0.11972607     0.62500
H2157       H  0.34813639  0.87868218  0.11248029     0.11900
C2158       C  0.32784795  0.87231498  0.06799113     0.54700
H2159       H  0.26729737  0.80297138  0.07564879     0.07700
C2160       C  0.20025819  0.76654852  0.09612759    -0.06100
C2161       C  0.16562884  0.73016155  0.09618470    -0.06800
C2162       C  0.16619243  0.69502857  0.09721886    -0.16400
C2163       C  0.20252340  0.69593125  0.09841909    -0.02000
C2164       C  0.23728328  0.73244642  0.09814367    -0.09500
C2165       C  0.19819560  0.80386762  0.09493655     0.64700
H2166       H  0.13759586  0.72878431  0.09526460     0.10200
C2167       C  0.20477251  0.65871629  0.09958978     0.63100
H2168       H  0.26547802  0.73403838  0.09864043     0.07600
F2169       F  0.32273203  0.90431099  0.06657269    -0.19900
F2170       F  0.30377246  0.84449881  0.05917600    -0.16100
F2171       F  0.36605657  0.88271058  0.06523922    -0.19600
F2172       F  0.28734892  0.77415342  0.12042113    -0.23000
F2173       F  0.24935685  0.80129460  0.12273151    -0.24500
F2174       F  0.31232567  0.83410922  0.12875294    -0.18500
F2175       F  0.24301941  0.66624614  0.09931020    -0.21000
F2176       F  0.18455538  0.63360201  0.08966332    -0.22100
F2177       F  0.18867537  0.64053154  0.11098385    -0.19300
F2178       F  0.16001799  0.79646333  0.09531498    -0.19400
F2179       F  0.21419544  0.82209259  0.08354110    -0.23200
F2180       F  0.21867811  0.82904971  0.10480550    -0.24800
C2181       C  0.76716930  0.35621213  0.08590199    -0.11600
C2182       C  0.76498895  0.31986761  0.08746939     0.10900
C2183       C  0.79972206  0.31827489  0.08941948    -0.03400
C2184       C  0.83576075  0.35351690  0.08995953    -0.06200
C2185       C  0.83805440  0.38996636  0.08854196    -0.17000
C2186       C  0.80321697  0.39157448  0.08657035     0.02000
C2187       C  0.72593502  0.28367617  0.08718142     0.11900
C2188       C  0.79860919  0.27941969  0.09092786     0.62500
H2189       H  0.86265424  0.35291987  0.09145398     0.11900
C2190       C  0.80382922  0.43035433  0.08578518     0.54700
H2191       H  0.74018880  0.35659692  0.08435552     0.07700
C2192       C  0.70317253  0.26863315  0.09825521    -0.06100
C2193       C  0.66913559  0.23158754  0.09768401    -0.06800
C2194       C  0.65614042  0.21013912  0.08629391    -0.16400
C2195       C  0.67718383  0.22713693  0.07491798    -0.02000
C2196       C  0.71218950  0.26350190  0.07565443    -0.09500
C2197       C  0.71472179  0.29182239  0.11057832     0.64700
H2198       H  0.65211327  0.21911806  0.10619291     0.10200
C2199       C  0.66345585  0.20710307  0.06208724     0.63100
H2200       H  0.72956185  0.27642835  0.06723818     0.07600
F2201       F  0.76643796  0.42517819  0.08539964    -0.19900
F2202       F  0.82297280  0.45024499  0.07492839    -0.16100
F2203       F  0.82287497  0.45295896  0.09632591    -0.19600
F2204       F  0.78306890  0.25709339  0.08008669    -0.23000
F2205       F  0.77570966  0.25914956  0.10117527    -0.24500
F2206       F  0.83557712  0.28446786  0.09293045    -0.18500
F2207       F  0.62883480  0.20560940  0.05865218    -0.21000
F2208       F  0.65773178  0.16958808  0.06267146    -0.22100
F2209       F  0.69038685  0.22699138  0.05262298    -0.19300
F2210       F  0.68766129  0.27256684  0.12006162    -0.19400
F2211       F  0.71706455  0.32756714  0.10861932    -0.23200
F2212       F  0.75065912  0.29809587  0.11479915    -0.24800
C2213       C  0.05371213  0.40803105  0.18187551    -0.11600
C2214       C  0.08093720  0.43325621  0.17300091     0.10900
C2215       C  0.12116300  0.44627420  0.17487958    -0.03400
C2216       C  0.13276634  0.43315756  0.18563152    -0.06200
C2217       C  0.10565340  0.40778069  0.19463535    -0.17000
C2218       C  0.06510573  0.39467407  0.19264523     0.02000
C2219       C  0.06668872  0.44745217  0.16221498     0.11900
C2220       C  0.15177813  0.47459442  0.16568029     0.62500
H2221       H  0.16351061  0.44306615  0.18714147     0.11900
C2222       C  0.03370303  0.36737165  0.20182472     0.54700
H2223       H  0.02319892  0.39900905  0.18026971     0.07700
C2224       C  0.05160650  0.42587255  0.15082699    -0.06100
C2225       C  0.04127080  0.44267407  0.14077164    -0.06800
C2226       C  0.04415471  0.47946430  0.14194360    -0.16400
C2227       C  0.05645437  0.49961534  0.15371988    -0.02000
C2228       C  0.06792503  0.48333290  0.16361301    -0.09500
C2229       C  0.04549420  0.38493646  0.14943941     0.64700
H2230       H  0.03091078  0.42718955  0.13183796     0.10200
C2231       C  0.05750481  0.53801289  0.15599744     0.63100
H2232       H  0.07855908  0.49885124  0.17253499     0.07600
F2233       F  0.03066786  0.33094329  0.20147908    -0.19900
F2234       F  0.99729875  0.36244269  0.19875323    -0.16100
F2235       F  0.04296503  0.38241550  0.21401021    -0.19600
F2236       F  0.15209638  0.50975784  0.16577381    -0.23000
F2237       F  0.14332688  0.45931832  0.15352438    -0.24500
F2238       F  0.18899240  0.48200214  0.16886779    -0.18500
F2239       F  0.05926459  0.54630980  0.16883839    -0.21000
F2240       F  0.02420185  0.53660284  0.15107375    -0.22100
F2241       F  0.09024744  0.56787584  0.15029906    -0.19300
F2242       F  0.03125189  0.36945601  0.13750898    -0.19400
F2243       F  0.01866268  0.36060329  0.15831421    -0.23200
F2244       F  0.08039815  0.38535109  0.15133690    -0.24800
C2245       C  0.91692884  0.67644245  0.65786706    -0.11600
C2246       C  0.90460989  0.70113337  0.66315616     0.10900
C2247       C  0.88901070  0.71906738  0.65521187    -0.03400
C2248       C  0.88557672  0.71103832  0.64216326    -0.06200
C2249       C  0.89727016  0.68599036  0.63691946    -0.17000
C2250       C  0.91344607  0.66852117  0.64473365     0.02000
C2251       C  0.90655593  0.70654301  0.67711432     0.11900
C2252       C  0.87619917  0.74667252  0.66048117     0.62500
H2253       H  0.87394939  0.72457413  0.63586081     0.11900
C2254       C  0.92713526  0.64218038  0.63909807     0.54700
H2255       H  0.92899644  0.66325889  0.66412481     0.07700
C2256       C  0.87654232  0.67915187  0.68504716    -0.06100
C2257       C  0.87798152  0.68781973  0.69802454    -0.06800
C2258       C  0.90881859  0.72225076  0.70329316    -0.16400
C2259       C  0.93975713  0.74871929  0.69547586    -0.02000
C2260       C  0.93787815  0.74059358  0.68238163    -0.09500
C2261       C  0.84372987  0.64056868  0.67987314     0.64700
H2262       H  0.85530655  0.66722999  0.70428112     0.10200
C2263       C  0.97507634  0.78429495  0.70106474     0.63100
H2264       H  0.96081254  0.76074696  0.67612072     0.07600
F2265       F  0.89583254  0.61022124  0.63340127    -0.19900
F2266       F  0.94291303  0.62872208  0.64824285    -0.16100
F2267       F  0.95548632  0.66256397  0.63007361    -0.19600
F2268       F  0.90820651  0.77945792  0.66551996    -0.23000
F2269       F  0.84866982  0.72824572  0.66987957    -0.24500
F2270       F  0.85968424  0.75889007  0.65118215    -0.18500
F2271       F  0.00293888  0.80514230  0.69194218    -0.21000
F2272       F  0.99220082  0.77261565  0.71030486    -0.22100
F2273       F  0.96364428  0.80886264  0.70644367    -0.19300
F2274       F  0.81590950  0.61966976  0.68900576    -0.19400
F2275       F  0.85909916  0.61782139  0.67577058    -0.23200
F2276       F  0.82504006  0.64709643  0.66979893    -0.24800
C2277       C  0.68503552  0.93259297  0.32169386    -0.11600
C2278       C  0.70145909  0.91527219  0.32929827     0.10900
C2279       C  0.72704649  0.90410678  0.32375533    -0.03400
C2280       C  0.73167582  0.90654573  0.31047406    -0.06200
C2281       C  0.71253882  0.92091387  0.30269412    -0.17000
C2282       C  0.69197436  0.93762524  0.30855931     0.02000
C2283       C  0.69031228  0.90760247  0.34292050     0.11900
C2284       C  0.74822190  0.88828452  0.33176924     0.62500
H2285       H  0.74833111  0.89483632  0.30605156     0.11900
C2286       C  0.67738900  0.96095537  0.30119838     0.54700
H2287       H  0.66599294  0.94158425  0.32604260     0.07700
C2288       C  0.70579335  0.93740046  0.35223243    -0.06100
C2289       C  0.69753710  0.92676798  0.36508498    -0.06800
C2290       C  0.67444855  0.88748504  0.36894526    -0.16400
C2291       C  0.65657716  0.85804144  0.35942457    -0.02000
C2292       C  0.66473780  0.86889706  0.34657027    -0.09500
C2293       C  0.73173577  0.98008410  0.34865178     0.64700
H2294       H  0.71009688  0.94928075  0.37231239     0.10200
C2295       C  0.62999406  0.81526283  0.36262621     0.63100
H2296       H  0.65222100  0.84692055  0.33917052     0.07600
F2297       F  0.70317606  0.98207842  0.29159469    -0.19900
F2298       F  0.67442055  0.98742667  0.30905247    -0.16100
F2299       F  0.64087595  0.93606033  0.29606604    -0.19600
F2300       F  0.72184794  0.85130557  0.33612854    -0.23000
F2301       F  0.76641736  0.91266526  0.34203590    -0.24500
F2302       F  0.77667851  0.88583953  0.32488461    -0.18500
F2303       F  0.59699423  0.81084570  0.36863314    -0.21000
F2304       F  0.64966185  0.80234296  0.37038402    -0.22100
F2305       F  0.61771721  0.79175694  0.35190888    -0.19300
F2306       F  0.74638341  0.00391358  0.35924815    -0.19400
F2307       F  0.71044248  0.99265772  0.34159664    -0.23200
F2308       F  0.76310044  0.98459280  0.34157587    -0.24800
C2309       C  0.75457551  0.70577961  0.51057161    -0.11600
C2310       C  0.77365046  0.74491667  0.50666586     0.10900
C2311       C  0.80586452  0.77313305  0.51381493    -0.03400
C2312       C  0.81807133  0.76101380  0.52465799    -0.06200
C2313       C  0.79871361  0.72187367  0.52890666    -0.17000
C2314       C  0.76656428  0.69342380  0.52147788     0.02000
C2315       C  0.75908738  0.75568924  0.49507936     0.11900
C2316       C  0.82685064  0.81610314  0.51011895     0.62500
H2317       H  0.84280605  0.78262389  0.53003894     0.11900
C2318       C  0.74521322  0.65006167  0.52463530     0.54700
H2319       H  0.72984907  0.68487342  0.50494258     0.07700
C2320       C  0.77025631  0.75150841  0.48266784    -0.06100
C2321       C  0.75728938  0.76462538  0.47222585    -0.06800
C2322       C  0.73283306  0.78058940  0.47384894    -0.16400
C2323       C  0.72089771  0.78384652  0.48618986    -0.02000
C2324       C  0.73413967  0.77114168  0.49664484    -0.09500
C2325       C  0.79535825  0.73288506  0.48048692     0.64700
H2326       H  0.76603894  0.76242751  0.46267840     0.10200
C2327       C  0.69489133  0.80145551  0.48821480     0.63100
H2328       H  0.72556242  0.77365916  0.50618294     0.07600
F2329       F  0.71874551  0.62780540  0.51521160    -0.19900
F2330       F  0.72451841  0.64347381  0.53577555    -0.16100
F2331       F  0.77188128  0.63721173  0.52587647    -0.19600
F2332       F  0.80169911  0.83072549  0.51137293    -0.23000
F2333       F  0.83920748  0.82049559  0.49767083    -0.24500
F2334       F  0.85940531  0.83829182  0.51769700    -0.18500
F2335       F  0.68747138  0.80318287  0.50094763    -0.21000
F2336       F  0.65950547  0.77903194  0.48201728    -0.22100
F2337       F  0.71286803  0.83905960  0.48340697    -0.19300
F2338       F  0.80441394  0.73335847  0.46778868    -0.19400
F2339       F  0.77539980  0.69437202  0.48445188    -0.23200
F2340       F  0.83007288  0.75271258  0.48724747    -0.24800
C2341       C  0.39901155  0.27826966  0.65365795    -0.11600
C2342       C  0.36910007  0.24648864  0.66021388     0.10900
C2343       C  0.34152770  0.21280809  0.65348388    -0.03400
C2344       C  0.34567640  0.21166311  0.64030448    -0.06200
C2345       C  0.37649309  0.24273150  0.63378913    -0.17000
C2346       C  0.40352711  0.27678287  0.64045996     0.02000
C2347       C  0.36828138  0.24834801  0.67422535     0.11900
C2348       C  0.30817553  0.17813880  0.66021274     0.62500
H2349       H  0.32505277  0.18609382  0.63494181     0.11900
C2350       C  0.43649030  0.31132597  0.63366335     0.54700
H2351       H  0.41938865  0.30385666  0.65905069     0.07700
C2352       C  0.39203058  0.23892262  0.68187789    -0.06100
C2353       C  0.38762985  0.23803609  0.69508721    -0.06800
C2354       C  0.36024586  0.24586145  0.70074880    -0.16400
C2355       C  0.33755393  0.25675351  0.69317708    -0.02000
C2356       C  0.34226050  0.25819890  0.67990923    -0.09500
C2357       C  0.42137907  0.22920057  0.67611622     0.64700
H2358       H  0.40508849  0.23038713  0.70116007     0.10200
C2359       C  0.30881109  0.26673965  0.69912083     0.63100
H2360       H  0.32497291  0.26602001  0.67382741     0.07600
F2361       F  0.46232306  0.30070507  0.62882210    -0.19900
F2362       F  0.45711931  0.34284288  0.64174492    -0.16100
F2363       F  0.42143059  0.32321392  0.62382363    -0.19600
F2364       F  0.28470760  0.18981202  0.66623639    -0.23000
F2365       F  0.32296058  0.16309264  0.66913411    -0.24500
F2366       F  0.28485088  0.14840495  0.65182937    -0.18500
F2367       F  0.32825008  0.29729684  0.70761278    -0.21000
F2368       F  0.28039555  0.23447602  0.70548260    -0.22100
F2369       F  0.29047856  0.27778125  0.69010019    -0.19300
F2370       F  0.44120082  0.22067041  0.68533440    -0.19400
F2371       F  0.44878063  0.26066049  0.66918088    -0.23200
F2372       F  0.40234347  0.19707050  0.66820750    -0.24800
C2373       C  0.09150091  0.88579347  0.57517171    -0.11600
C2374       C  0.09019631  0.91967380  0.57213584     0.10900
C2375       C  0.05415564  0.91698909  0.56880427    -0.03400
C2376       C  0.01970586  0.88042486  0.56970799    -0.06200
C2377       C  0.02061482  0.84664852  0.57340552    -0.17000
C2378       C  0.05730062  0.84897541  0.57568610     0.02000
C2379       C  0.12744289  0.95746846  0.57236280     0.11900
C2380       C  0.05235601  0.95231257  0.56394651     0.62500
H2381       H  0.99164732  0.87800425  0.56762361     0.11900
C2382       C  0.06079821  0.81288221  0.57818209     0.54700
H2383       H  0.11972349  0.88859699  0.57727874     0.07700
C2384       C  0.14249925  0.97923128  0.58370615    -0.06100
C2385       C  0.17864650  0.01411522  0.58328970    -0.06800
C2386       C  0.20050408  0.02725470  0.57207245    -0.16400
C2387       C  0.18591661  0.00476350  0.56078762    -0.02000
C2388       C  0.14914009  0.97028549  0.56114035    -0.09500
C2389       C  0.12078764  0.96553333  0.59622410     0.64700
H2390       H  0.19037106  0.03152921  0.59182586     0.10200
C2391       C  0.20981510  0.01544759  0.54868969     0.63100
H2392       H  0.13723912  0.95242190  0.55270323     0.07600
F2393       F  0.04728536  0.79843660  0.59018125    -0.19900
F2394       F  0.09923465  0.82114225  0.57747790    -0.16100
F2395       F  0.03928535  0.78442947  0.56920822    -0.19600
F2396       F  0.07122429  0.96372752  0.55240080    -0.23000
F2397       F  0.07043517  0.98308942  0.57241124    -0.24500
F2398       F  0.01415783  0.94411126  0.56222121    -0.18500
F2399       F  0.19118391  0.98758411  0.53927698    -0.21000
F2400       F  0.24557505  0.01818567  0.55119715    -0.22100
F2401       F  0.21579562  0.05075129  0.54403348    -0.19300
F2402       F  0.14111539  0.99101188  0.60608224    -0.19400
F2403       F  0.11562844  0.92925892  0.59937969    -0.23200
F2404       F  0.08459225  0.96285807  0.59521221    -0.24800
C2405       C  0.63570348  0.49021383  0.59099130    -0.11600
C2406       C  0.63663843  0.45554232  0.58892745     0.10900
C2407       C  0.67294721  0.45772309  0.58637152    -0.03400
C2408       C  0.70697538  0.49481189  0.58555359    -0.06200
C2409       C  0.70557583  0.52941318  0.58696587    -0.17000
C2410       C  0.66978053  0.52726551  0.59014435     0.02000
C2411       C  0.59864019  0.41803738  0.58788652     0.11900
C2412       C  0.67558237  0.42118803  0.58396593     0.62500
H2413       H  0.73480295  0.49713405  0.58328468     0.11900
C2414       C  0.66787466  0.56408188  0.59265079     0.54700
H2415       H  0.60772085  0.48805520  0.59283731     0.07700
C2416       C  0.57613855  0.39699317  0.59852529    -0.06100
C2417       C  0.53948543  0.36291263  0.59644573    -0.06800
C2418       C  0.52496256  0.34897195  0.58412331    -0.16400
C2419       C  0.54878673  0.36941567  0.57353002    -0.02000
C2420       C  0.58459339  0.40403663  0.57566346    -0.09500
C2421       C  0.59099367  0.41021560  0.61197595     0.64700
H2422       H  0.52165983  0.34703735  0.60449951     0.10200
C2423       C  0.53739888  0.35516373  0.55994130     0.63100
H2424       H  0.60215669  0.42088702  0.56768575     0.07600
F2425       F  0.63116014  0.55566529  0.59667718    -0.19900
F2426       F  0.67640262  0.58594149  0.58166053    -0.16100
F2427       F  0.69477047  0.58609935  0.60199269    -0.19600
F2428       F  0.65913680  0.40549631  0.57227817    -0.23000
F2429       F  0.65590234  0.39362320  0.59328047    -0.24500
F2430       F  0.71402850  0.42929147  0.58398545    -0.18500
F2431       F  0.50783534  0.36181751  0.55589572    -0.21000
F2432       F  0.52498397  0.31572369  0.55912294    -0.22100
F2433       F  0.56862863  0.37443042  0.55173880    -0.19300
F2434       F  0.56585612  0.38422625  0.62093326    -0.19400
F2435       F  0.59466472  0.44635031  0.61426389    -0.23200
F2436       F  0.62711320  0.41300864  0.61359512    -0.24800
C2437       C  0.11195563  0.80083326  0.35150585    -0.11600
C2438       C  0.14624578  0.81971153  0.34433934     0.10900
C2439       C  0.18274016  0.83028694  0.35013132    -0.03400
C2440       C  0.18373077  0.82307268  0.36316872    -0.06200
C2441       C  0.14961292  0.80590241  0.37056286    -0.17000
C2442       C  0.11276491  0.79264388  0.36447527     0.02000
C2443       C  0.14320811  0.82825391  0.33076808     0.11900
C2444       C  0.22068518  0.85035258  0.34269056     0.62500
H2445       H  0.21170529  0.83299938  0.36782299     0.11900
C2446       C  0.07421699  0.76984758  0.37143462     0.54700
H2447       H  0.08437172  0.79304187  0.34688019     0.07700
C2448       C  0.13110319  0.79916653  0.32129730    -0.06100
C2449       C  0.13303759  0.81031326  0.30853260    -0.06800
C2450       C  0.14807806  0.84965526  0.30487684    -0.16400
C2451       C  0.15786787  0.87837449  0.31450497    -0.02000
C2452       C  0.15434781  0.86674502  0.32733007    -0.09500
C2453       C  0.11777432  0.75684845  0.32462787     0.64700
H2454       H  0.12442814  0.78829098  0.30119710     0.10200
C2455       C  0.17408492  0.92128980  0.31146380     0.63100
H2456       H  0.16226579  0.88808180  0.33486122     0.07600
F2457       F  0.07544190  0.74281585  0.37953465    -0.19900
F2458       F  0.04333808  0.74953297  0.36304084    -0.16100
F2459       F  0.06683785  0.79519728  0.37829964    -0.19600
F2460       F  0.22852025  0.88716942  0.33899409    -0.23000
F2461       F  0.21765295  0.82863563  0.33202629    -0.24500
F2462       F  0.25218516  0.85461977  0.34984991    -0.18500
F2463       F  0.14692205  0.92592298  0.30445100    -0.21000
F2464       F  0.20838035  0.93514888  0.30468622    -0.22100
F2465       F  0.18246828  0.94384956  0.32233724    -0.19300
F2466       F  0.10924952  0.73368548  0.31390630    -0.19400
F2467       F  0.08437791  0.74151226  0.33192753    -0.23200
F2468       F  0.14692333  0.75478765  0.33136170    -0.24800
C2469       C  0.99840975  0.88568575  0.43772883    -0.11600
C2470       C  0.96390138  0.84954442  0.43622519     0.10900
C2471       C  0.96614971  0.81507034  0.43479786    -0.03400
C2472       C  0.00319114  0.81804809  0.43481321    -0.06200
C2473       C  0.03786842  0.85425647  0.43595940    -0.17000
C2474       C  0.03561579  0.88877436  0.43761052     0.02000
C2475       C  0.92601997  0.84899566  0.43498118     0.11900
C2476       C  0.92969848  0.77551729  0.43264177     0.62500
H2477       H  0.00546467  0.79207831  0.43343295     0.11900
C2478       C  0.07218740  0.92883131  0.43861922     0.54700
H2479       H  0.99591848  0.91167391  0.43861542     0.07700
C2480       C  0.90451192  0.84956421  0.44558218    -0.06100
C2481       C  0.86800767  0.84719666  0.44347650    -0.06800
C2482       C  0.85277999  0.84482580  0.43114049    -0.16400
C2483       C  0.87527435  0.84552267  0.42053312    -0.02000
C2484       C  0.91150284  0.84761091  0.42271390    -0.09500
C2485       C  0.92044766  0.85328955  0.45899695     0.64700
H2486       H  0.85105132  0.84726507  0.45150471     0.10200
C2487       C  0.86216618  0.84541954  0.40691804     0.63100
H2488       H  0.92897897  0.84790076  0.41478846     0.07600
F2489       F  0.06334011  0.95862661  0.43880218    -0.19900
F2490       F  0.09617461  0.93497415  0.42832762    -0.16100
F2491       F  0.09223644  0.93116075  0.44971148    -0.19600
F2492       F  0.91378036  0.77492344  0.42084910    -0.23000
F2493       F  0.90225567  0.76851912  0.44188060    -0.24500
F2494       F  0.93796634  0.74533110  0.43304958    -0.18500
F2495       F  0.85314026  0.87481755  0.40531955    -0.21000
F2496       F  0.82976746  0.80960236  0.40407581    -0.22100
F2497       F  0.89107612  0.85180120  0.39829242    -0.19300
F2498       F  0.89369834  0.85016872  0.46802129    -0.19400
F2499       F  0.95392629  0.88934179  0.46044710    -0.23200
F2500       F  0.92951632  0.82423035  0.46131730    -0.24800
C2501       C  0.48316649  0.85935442  0.40684693    -0.11600
C2502       C  0.46090165  0.85172818  0.41791081     0.10900
C2503       C  0.47461415  0.84399080  0.42941188    -0.03400
C2504       C  0.51013465  0.84370377  0.42938692    -0.06200
C2505       C  0.53271986  0.85152319  0.41835847    -0.17000
C2506       C  0.51938848  0.86020434  0.40689558     0.02000
C2507       C  0.42294801  0.85136527  0.41722504     0.11900
C2508       C  0.45202077  0.83648818  0.44171010     0.62500
H2509       H  0.52059152  0.83716100  0.43807339     0.11900
C2510       C  0.54386605  0.87203617  0.39492507     0.54700
H2511       H  0.47194711  0.86490538  0.39814817     0.07700
C2512       C  0.42085820  0.88613007  0.41772221    -0.06100
C2513       C  0.38381959  0.88310922  0.41849737    -0.06800
C2514       C  0.34908340  0.84674684  0.41833242    -0.16400
C2515       C  0.35111981  0.81202544  0.41708327    -0.02000
C2516       C  0.38825019  0.81506485  0.41655054    -0.09500
C2517       C  0.45750955  0.92618712  0.41742127     0.64700
H2518       H  0.38160651  0.90928679  0.41928240     0.10200
C2519       C  0.31449080  0.77191855  0.41674288     0.63100
H2520       H  0.39062378  0.78896251  0.41586182     0.07600
F2521       F  0.52835306  0.88525974  0.38560396    -0.19900
F2522       F  0.54551167  0.84038275  0.39009206    -0.16100
F2523       F  0.58136973  0.90196897  0.39765492    -0.19600
F2524       F  0.41610494  0.80266221  0.44065469    -0.23000
F2525       F  0.44623084  0.86752425  0.44430534    -0.24500
F2526       F  0.47183334  0.83217961  0.45193189    -0.18500
F2527       F  0.29365021  0.76794261  0.40569852    -0.21000
F2528       F  0.29124631  0.76738040  0.42710015    -0.22100
F2529       F  0.32335525  0.74212428  0.41706202    -0.19300
F2530       F  0.44886302  0.95602186  0.41841174    -0.19400
F2531       F  0.47676015  0.93090220  0.40607796    -0.23200
F2532       F  0.48222542  0.92992067  0.42736476    -0.24800
C2533       C  0.31606134  0.01294336  0.48703531    -0.11600
C2534       C  0.28934974  0.00805844  0.49653857     0.10900
C2535       C  0.25006533  0.97743769  0.49556223    -0.03400
C2536       C  0.23878277  0.95257158  0.48494092    -0.06200
C2537       C  0.26541267  0.95713373  0.47533703    -0.17000
C2538       C  0.30501916  0.98765527  0.47647942     0.02000
C2539       C  0.30302115  0.03602474  0.50732256     0.11900
C2540       C  0.22013494  0.97131204  0.50565347     0.62500
H2541       H  0.20865698  0.92929674  0.48401924     0.11900
C2542       C  0.33556868  0.99404869  0.46665061     0.54700
H2543       H  0.34585748  0.03685955  0.48802120     0.07700
C2544       C  0.32256981  0.03176943  0.51798212    -0.06100
C2545       C  0.33123328  0.05730652  0.52835676    -0.06800
C2546       C  0.32167029  0.08724152  0.52825046    -0.16400
C2547       C  0.30452022  0.09294296  0.51712473    -0.02000
C2548       C  0.29532964  0.06696930  0.50687047    -0.09500
C2549       C  0.33427713  0.00049441  0.51832036     0.64700
H2550       H  0.34521697  0.05373296  0.53673765     0.10200
C2551       C  0.29585425  0.12611532  0.51593744     0.63100
H2552       H  0.28111109  0.07001665  0.49845340     0.07600
F2553       F  0.34213615  0.96278891  0.46686465    -0.19900
F2554       F  0.37096537  0.02765836  0.46903587    -0.16100
F2555       F  0.32287860  0.99756111  0.45469310    -0.19600
F2556       F  0.21415175  0.00294048  0.50586160    -0.23000
F2557       F  0.23335693  0.96744809  0.51746594    -0.24500
F2558       F  0.18440390  0.93799168  0.50337762    -0.18500
F2559       F  0.28701550  0.13092045  0.50355156    -0.21000
F2560       F  0.32805049  0.16092948  0.51977968    -0.22100
F2561       F  0.26397896  0.11798231  0.52334738    -0.19300
F2562       F  0.35188739  0.00047393  0.52973835    -0.14000
F2563       F  0.36059351  0.00715876  0.50871919    -0.23200
F2564       F  0.30168322  0.96390871  0.51665146    -0.24800
C2565       C  0.25894358  0.37045165  0.34746518    -0.11600
C2566       C  0.22619169  0.36580478  0.34064281     0.10900
C2567       C  0.19343649  0.36224819  0.34727134    -0.03400
C2568       C  0.19511014  0.36454137  0.36062853    -0.06200
C2569       C  0.22761975  0.36861476  0.36746918    -0.17000
C2570       C  0.26013492  0.37170348  0.36084587     0.02000
C2571       C  0.22681084  0.36455800  0.32653600     0.11900
C2572       C  0.15640410  0.35466840  0.34028155     0.62500
H2573       H  0.17036751  0.36174884  0.36590004     0.11900
C2574       C  0.29599343  0.37676703  0.36791603     0.54700
H2575       H  0.28347031  0.37276205  0.34219003     0.07700
C2576       C  0.24160378  0.39895014  0.31915599    -0.06100
C2577       C  0.23704811  0.39537725  0.30589441    -0.06800
C2578       C  0.21973754  0.35876791  0.29976389    -0.16400
C2579       C  0.20905183  0.32472253  0.30712702    -0.02000
C2580       C  0.21205641  0.32820068  0.32047180    -0.09500
C2581       C  0.26244036  0.43923637  0.32526776     0.64700
H2582       H  0.24625333  0.42141012  0.30022611     0.10200
C2583       C  0.19499067  0.28496272  0.30108073     0.63100
H2584       H  0.20216825  0.30234280  0.32630545     0.07600
F2585       F  0.30976499  0.40849603  0.37602897    -0.19900
F2586       F  0.32587477  0.38316193  0.35971312    -0.16100
F2587       F  0.28637783  0.34348863  0.37489038    -0.19600
F2588       F  0.14082624  0.31959640  0.33378316    -0.23000
F2589       F  0.16462609  0.38432108  0.33171330    -0.24500
F2590       F  0.12821504  0.35246252  0.34853172    -0.18500
F2591       F  0.21713161  0.28851006  0.29049778    -0.21000
F2592       F  0.15610127  0.26862229  0.29757234    -0.22100
F2593       F  0.19841438  0.25965868  0.30942413    -0.19300
F2594       F  0.27468132  0.46879511  0.31633558    -0.19400
F2595       F  0.29511137  0.44415228  0.33181520    -0.23200
F2596       F  0.23788952  0.44327774  0.33363163    -0.24800
C2597       C  0.22106126  0.15073142  0.42382349    -0.11600
C2598       C  0.18981643  0.11866384  0.42971157     0.10900
C2599       C  0.15881769  0.12234184  0.43483135    -0.03400
C2600       C  0.15938782  0.15807352  0.43333674    -0.06200
C2601       C  0.19018687  0.19026786  0.42708194    -0.17000
C2602       C  0.22205803  0.18666339  0.42240497     0.02000
C2603       C  0.19036117  0.08139313  0.43015773     0.11900
C2604       C  0.12566117  0.08878434  0.44197458     0.62500
H2605       H  0.13548734  0.16103530  0.43705432     0.11900
C2606       C  0.25740500  0.22025402  0.41608547     0.54700
H2607       H  0.24459011  0.14702880  0.42016007     0.07700
C2608       C  0.17760217  0.05537293  0.41969407    -0.06100
C2609       C  0.17908708  0.02070606  0.42069884    -0.06800
C2610       C  0.19432500  0.01216922  0.43153819    -0.16400
C2611       C  0.20868615  0.03895687  0.44179993    -0.02000
C2612       C  0.20588345  0.07310330  0.44099028    -0.09500
C2613       C  0.16413293  0.06493013  0.40731880     0.64700
H2614       H  0.16920960  0.00023759  0.41283686     0.10200
C2615       C  0.22850607  0.03246650  0.45321390     0.63100
H2616       H  0.21640263  0.09402470  0.44872152     0.07600
F2617       F  0.24668326  0.22760910  0.40432785    -0.19900
F2618       F  0.28714948  0.21183978  0.41424284    -0.16100
F2619       F  0.27227286  0.25340637  0.42359495    -0.19600
F2620       F  0.14035826  0.08071905  0.45280927    -0.23000
F2621       F  0.10791251  0.05568869  0.43442738    -0.24500
F2622       F  0.09728878  0.09760919  0.44559345    -0.18500
F2623       F  0.24522302  0.06467936  0.46119502    -0.21000
F2624       F  0.25791260  0.02566337  0.44921343    -0.22100
F2625       F  0.20141183  0.00063938  0.46009340    -0.19300
F2626       F  0.14987542  0.03407347  0.39880048    -0.19400
F2627       F  0.19534654  0.09690832  0.40171507    -0.23200
F2628       F  0.13469976  0.07341157  0.40955677    -0.24800
C2629       C  0.22818564  0.58115516  0.42205343    -0.11600
C2630       C  0.19362706  0.58214671  0.42402785     0.10900
C2631       C  0.15832687  0.54700288  0.42655312    -0.03400
C2632       C  0.15899509  0.51172785  0.42717021    -0.06200
C2633       C  0.19338363  0.51049868  0.42491827    -0.17000
C2634       C  0.22880619  0.54582637  0.42245942     0.02000
C2635       C  0.19518700  0.62048735  0.42341149     0.11900
C2636       C  0.11988489  0.54660644  0.42812462     0.62500
H2637       H  0.13224014  0.48448544  0.42897169     0.11900
C2638       C  0.26731749  0.54654227  0.42060470     0.54700
H2639       H  0.25470341  0.60843116  0.42007257     0.07700
C2640       C  0.20737616  0.64624784  0.43392083    -0.06100
C2641       C  0.20464766  0.68028134  0.43304994    -0.06800
C2642       C  0.19155090  0.69008332  0.42192597    -0.16400
C2643       C  0.18140600  0.66527291  0.41113488    -0.02000
C2644       C  0.18324392  0.63060770  0.41214333    -0.09500
C2645       C  0.22393717  0.63829441  0.44590409     0.64700
H2646       H  0.21342801  0.70006337  0.44107869     0.10200
C2647       C  0.16745137  0.67432155  0.39878254     0.63100
H2648       H  0.17492052  0.61069755  0.40416569     0.07600
F2649       F  0.29877209  0.58435154  0.42024115    -0.19900
F2650       F  0.26644921  0.52855700  0.40927632    -0.16100
F2651       F  0.27356844  0.52726133  0.43053502    -0.19600
F2652       F  0.10899355  0.55554062  0.41664599    -0.23000
F2653       F  0.12381067  0.57381762  0.43711725    -0.24500
F2654       F  0.09010649  0.51034784  0.43198258    -0.18500
F2655       F  0.19730270  0.70806561  0.39347719    -0.21000
F2656       F  0.13565187  0.67917151  0.40105987    -0.22100
F2657       F  0.15611118  0.64452669  0.38997298    -0.19300
F2658       F  0.23083148  0.66538584  0.45535080    -0.19400
F2659       F  0.25908080  0.64026611  0.44314836    -0.23200
F2660       F  0.19814235  0.60157826  0.45060725    -0.24800
C2661       C  0.45524569  0.65435373  0.41815806    -0.11600
C2662       C  0.45507662  0.61883943  0.41915034     0.10900
C2663       C  0.49092423  0.61913842  0.42062017    -0.03400
C2664       C  0.52581441  0.65532025  0.42173202    -0.06200
C2665       C  0.52609551  0.69097367  0.42098519    -0.17000
C2666       C  0.49022764  0.69066826  0.41906072     0.02000
C2667       C  0.41674589  0.58173242  0.41915139     0.11900
C2668       C  0.49231652  0.58138656  0.42082375     0.62500
H2669       H  0.55347937  0.65610500  0.42298063     0.11900
C2670       C  0.48847319  0.72822040  0.41835820     0.54700
H2671       H  0.42747349  0.65327959  0.41681409     0.07700
C2672       C  0.39425940  0.56756287  0.43033330    -0.06100
C2673       C  0.35932366  0.53131365  0.42990384    -0.06800
C2674       C  0.34592498  0.50910156  0.41868720    -0.16400
C2675       C  0.36802626  0.52374061  0.40740692    -0.02000
C2676       C  0.40311278  0.56014094  0.40784424    -0.09500
C2677       C  0.40731314  0.59053351  0.44269622     0.64700
H2678       H  0.34197138  0.51990627  0.43841160     0.10200
C2679       C  0.35563943  0.50043463  0.39513348     0.63100
H2680       H  0.42060425  0.57189344  0.39938265     0.07600
F2681       F  0.45028978  0.72093410  0.41851022    -0.19900
F2682       F  0.50555028  0.74787581  0.40724476    -0.16100
F2683       F  0.50801748  0.75191487  0.42864060    -0.19600
F2684       F  0.47917334  0.56241445  0.40929436    -0.23000
F2685       F  0.46883925  0.55718856  0.43039238    -0.24500
F2686       F  0.52992918  0.58817302  0.42285407    -0.18500
F2687       F  0.32125306  0.49752524  0.39064618    -0.21000
F2688       F  0.34998084  0.46337062  0.39726440    -0.22100
F2689       F  0.38364882  0.51789390  0.38578517    -0.19300
F2690       F  0.38160061  0.57103378  0.45249160    -0.19400
F2691       F  0.40933527  0.62626914  0.44114624    -0.23200
F2692       F  0.44377196  0.59667895  0.44625599    -0.24800
C2693       C  0.88662227  0.07733212  0.42770614    -0.11600
C2694       C  0.91790006  0.07802960  0.43428827     0.10900
C2695       C  0.91193429  0.04430771  0.44090772    -0.03400
C2696       C  0.87554951  0.00958412  0.43963988    -0.06200
C2697       C  0.84469276  0.00778243  0.43226542    -0.17000
C2698       C  0.84986036  0.04304161  0.42665144     0.02000
C2699       C  0.95660670  0.11459082  0.43374235     0.11900
C2700       C  0.94373929  0.04510461  0.44933091     0.62500
H2701       H  0.87136253  0.98320648  0.44422068     0.11900
C2702       C  0.81749418  0.04531691  0.41944877     0.54700
H2703       H  0.89175627  0.10394255  0.42302098     0.07700
C2704       C  0.98181617  0.12303371  0.42321124    -0.06100
C2705       C  0.01633378  0.15956102  0.42266968    -0.06800
C2706       C  0.02637470  0.18743028  0.43227538    -0.16400
C2707       C  0.00167700  0.17903319  0.44288922    -0.02000
C2708       C  0.96674682  0.14261233  0.44339485    -0.09500
C2709       C  0.97215555  0.09388793  0.41248297     0.64700
H2710       H  0.03586223  0.16687019  0.41466532     0.10200
C2711       C  0.01212077  0.20874358  0.45346006     0.63100
H2712       H  0.94685529  0.13582045  0.45126314     0.07600
F2713       F  0.82651456  0.08365857  0.41753614    -0.19900
F2714       F  0.78297690  0.02688271  0.42622186    -0.16100
F2715       F  0.81212494  0.02791753  0.40766885    -0.19600
F2716       F  0.95266071  0.07190809  0.45901017    -0.23000
F2717       F  0.97709088  0.05568687  0.44235800    -0.24500
F2718       F  0.93207729  0.00898887  0.45477903    -0.18500
F2719       F  0.01771946  0.24366446  0.44850827    -0.21000
F2720       F  0.04614267  0.21513530  0.45941932    -0.22100
F2721       F  0.98302471  0.19603714  0.46249582    -0.19300
F2722       F  0.00164912  0.10749297  0.40353977    -0.19400
F2723       F  0.93811556  0.08697009  0.40640234    -0.23200
F2724       F  0.96721111  0.05906904  0.41723681    -0.24800
C2725       C  0.79127414  0.15638165  0.65709692    -0.11600
C2726       C  0.82362079  0.15729482  0.66310298     0.10900
C2727       C  0.85314818  0.15684136  0.65568608    -0.03400
C2728       C  0.85043244  0.15792200  0.64240870    -0.06200
C2729       C  0.81918041  0.15905617  0.63636472    -0.17000
C2730       C  0.78850266  0.15730728  0.64375629     0.02000
C2731       C  0.82688250  0.16042723  0.67716514     0.11900
C2732       C  0.88753350  0.15552890  0.66176423     0.62500
H2733       H  0.87329976  0.15865948  0.63657874     0.11900
C2734       C  0.75257534  0.15504410  0.63760524     0.54700
H2735       H  0.76852615  0.15561409  0.66299011     0.07700
C2736       C  0.84185255  0.19698675  0.68337019    -0.06100
C2737       C  0.84775434  0.19871373  0.69658637    -0.06800
C2738       C  0.83866438  0.16515463  0.70368040    -0.16400
C2739       C  0.82197975  0.12836422  0.69760230    -0.02000
C2740       C  0.81617783  0.12655094  0.68434431    -0.09500
C2741       C  0.85111918  0.23385483  0.67606502     0.64700
H2742       H  0.85934815  0.22636672  0.70154820     0.10200
C2743       C  0.81068120  0.09148414  0.70513319     0.63100
H2744       H  0.80402996  0.09879837  0.67942327     0.07600
F2745       F  0.76306027  0.18876151  0.63080061    -0.19900
F2746       F  0.72512417  0.15091943  0.64650865    -0.16100
F2747       F  0.73528146  0.12313818  0.62952875    -0.19600
F2748       F  0.87406146  0.12180288  0.66887845    -0.23000
F2749       F  0.90826656  0.18766868  0.66956290    -0.24500
F2750       F  0.91300828  0.15561533  0.65277559    -0.18500
F2751       F  0.79097098  0.05825960  0.69768720    -0.21000
F2752       F  0.78650562  0.08831607  0.71506418    -0.22100
F2753       F  0.84409757  0.09300140  0.70997431    -0.19300
F2754       F  0.86584347  0.26630289  0.68391712    -0.19400
F2755       F  0.81741951  0.22934385  0.67036403    -0.23200
F2756       F  0.87859787  0.24103450  0.66681863    -0.24800
C2757       C  0.87550353  0.48168139  0.59742651    -0.11600
C2758       C  0.86467624  0.45896386  0.58630672     0.10900
C2759       C  0.85491503  0.47261049  0.57521346    -0.03400
C2760       C  0.85659810  0.50895327  0.57560162    -0.06200
C2761       C  0.86764044  0.53201694  0.58664833    -0.17000
C2762       C  0.87769618  0.51848090  0.59776617     0.02000
C2763       C  0.86428027  0.42112816  0.58633644     0.11900
C2764       C  0.84275641  0.44884295  0.56299420     0.62500
H2765       H  0.84893171  0.51964991  0.56720521     0.11900
C2766       C  0.89224169  0.54332465  0.60970570     0.54700
H2767       H  0.88269502  0.47048156  0.60580029     0.07700
C2768       C  0.89846407  0.41913388  0.58389521    -0.06100
C2769       C  0.89516618  0.38215921  0.58255290    -0.06800
C2770       C  0.85917710  0.34749094  0.58394683    -0.16400
C2771       C  0.82506439  0.34947834  0.58675773    -0.02000
C2772       C  0.82838104  0.38654963  0.58796856    -0.09500
C2773       C  0.93823919  0.45594186  0.58283451     0.64700
H2774       H  0.92089628  0.37996269  0.58055798     0.10200
C2775       C  0.78510476  0.31284165  0.58789595     0.63100
H2776       H  0.80274020  0.38895958  0.58990145     0.07600
F2777       F  0.90555258  0.52703849  0.61872313    -0.19900
F2778       F  0.86223146  0.54684467  0.61502072    -0.16100
F2779       F  0.92292403  0.58009437  0.60675604    -0.19600
F2780       F  0.80857227  0.41381483  0.56490956    -0.23000
F2781       F  0.87174309  0.44122591  0.55919353    -0.24500
F2782       F  0.83619864  0.46835655  0.55319463    -0.18500
F2783       F  0.78441995  0.29144103  0.59838510    -0.21000
F2784       F  0.77711149  0.29012722  0.57709751    -0.22100
F2785       F  0.75550389  0.32168482  0.58927579    -0.19300
F2786       F  0.96753736  0.44744553  0.58024018    -0.19400
F2787       F  0.94746514  0.47634188  0.59416496    -0.23200
F2788       F  0.93776000  0.47957842  0.57321322    -0.24800
C2789       C  0.84963758  0.89784313  0.56282484    -0.11600
C2790       C  0.86359126  0.92343612  0.57321401     0.10900
C2791       C  0.87608792  0.91262438  0.58437030    -0.03400
C2792       C  0.87373468  0.87590108  0.58479054    -0.06200
C2793       C  0.86008118  0.85024148  0.57437776    -0.17000
C2794       C  0.84829148  0.86151861  0.56310481     0.02000
C2795       C  0.86297240  0.96065752  0.57248593     0.11900
C2796       C  0.89151071  0.93970417  0.59581621     0.62500
H2797       H  0.88285084  0.86696080  0.59327947     0.11900
C2798       C  0.83458981  0.83561576  0.55140804     0.54700
H2799       H  0.84008513  0.90680759  0.55444139     0.07700
C2800       C  0.89408234  0.99514431  0.56726123    -0.06100
C2801       C  0.89340491  0.03037770  0.56844513    -0.06800
C2802       C  0.86221826  0.03170675  0.57441940    -0.16400
C2803       C  0.82962510  0.99618240  0.57872504    -0.02000
C2804       C  0.83081798  0.96132425  0.57768797    -0.09500
C2805       C  0.92733431  0.99434741  0.56033251     0.64700
H2806       H  0.91757205  0.05728979  0.56483665     0.10200
C2807       C  0.79346895  0.99447198  0.58438487     0.63100
H2808       H  0.80702121  0.93419957  0.58133728     0.07600
F2809       F  0.86585000  0.83372292  0.54640100    -0.19900
F2810       F  0.82024916  0.85004587  0.54209009    -0.16100
F2811       F  0.80510411  0.79842187  0.55455418    -0.19600
F2812       F  0.86224587  0.94530732  0.60067981    -0.23000
F2813       F  0.92269759  0.97550177  0.59233714    -0.24500
F2814       F  0.90429350  0.92454264  0.60537147    -0.18500
F2815       F  0.76282269  0.95640888  0.58543063    -0.21000
F2816       F  0.78079794  0.01459904  0.57674833    -0.22100
F2817       F  0.80207522  0.01064347  0.59642214    -0.19300
F2818       F  0.95563473  0.03129743  0.55646055    -0.19400
F2819       F  0.91266887  0.97088792  0.54967463    -0.23200
F2820       F  0.94516108  0.97949243  0.56811359    -0.24800
C2821       C  0.59173127  0.22420627  0.58482609    -0.11600
C2822       C  0.59153042  0.18862500  0.58477629     0.10900
C2823       C  0.55551183  0.15293032  0.58416518    -0.03400
C2824       C  0.52057216  0.15420535  0.58311230    -0.06200
C2825       C  0.52080469  0.18985863  0.58299899    -0.17000
C2826       C  0.55687800  0.22553078  0.58378526     0.02000
C2827       C  0.62973859  0.18984136  0.58477463     0.11900
C2828       C  0.55408794  0.11380956  0.58482118     0.62500
H2829       H  0.49265481  0.12731578  0.58254217     0.11900
C2830       C  0.55867002  0.26477812  0.58289200     0.54700
H2831       H  0.61967229  0.25105910  0.58542084     0.07700
C2832       C  0.65127076  0.19637807  0.57347285    -0.06100
C2833       C  0.68647825  0.19566775  0.57399978    -0.06800
C2834       C  0.70143688  0.18992291  0.58545864    -0.16400
C2835       C  0.68079305  0.18549547  0.59690770    -0.02000
C2836       C  0.64487982  0.18510696  0.59630567    -0.09500
C2837       C  0.63709860  0.20407258  0.56090629     0.64700
H2838       H  0.70297528  0.20001784  0.56538413     0.10200
C2839       C  0.69622886  0.18105726  0.60966595     0.63100
H2840       H  0.62828758  0.18131680  0.60485991     0.07600
F2841       F  0.59676336  0.29552190  0.58204784    -0.19900
F2842       F  0.54200227  0.27070413  0.59352930    -0.16100
F2843       F  0.53858158  0.26544013  0.57217171    -0.19600
F2844       F  0.56808341  0.11006087  0.59650692    -0.23000
F2845       F  0.57686731  0.11132475  0.57536767    -0.24500
F2846       F  0.51633652  0.08275295  0.58333516    -0.18500
F2847       F  0.72989261  0.21558450  0.61272693    -0.21000
F2848       F  0.70437332  0.15084772  0.60916106    -0.22100
F2849       F  0.66948922  0.17283573  0.61928789    -0.19300
F2850       F  0.66201133  0.20866094  0.55103429    -0.19400
F2851       F  0.63509142  0.23795289  0.56174998    -0.23200
F2852       F  0.60041262  0.17316452  0.55792942    -0.24800
C2853       C  0.07856601  0.19674416  0.56084596    -0.11600
C2854       C  0.09416728  0.19023553  0.57199952     0.10900
C2855       C  0.07624982  0.18797635  0.58380813    -0.03400
C2856       C  0.04108284  0.18875408  0.58390306    -0.06200
C2857       C  0.02478508  0.19426695  0.57274535    -0.17000
C2858       C  0.04456061  0.19996762  0.56104804     0.02000
C2859       C  0.13155904  0.18993148  0.57125326     0.11900
C2860       C  0.09494193  0.18631323  0.59629692     0.62500
H2861       H  0.02620542  0.18565461  0.59279936     0.11900
C2862       C  0.03168693  0.21229028  0.54910276     0.54700
H2863       H  0.09395211  0.20035372  0.55202592     0.07700
C2864       C  0.13304839  0.15535953  0.56907123    -0.06100
C2865       C  0.16965419  0.15722939  0.56964953    -0.06800
C2866       C  0.20442073  0.19245949  0.57227455    -0.16400
C2867       C  0.20283898  0.22745353  0.57374482    -0.02000
C2868       C  0.16627178  0.22542225  0.57310721    -0.09500
C2869       C  0.09620161  0.11689613  0.56606794     0.64700
H2870       H  0.17127892  0.13087580  0.56835172     0.10200
C2871       C  0.23917360  0.26693813  0.57606053     0.63100
H2872       H  0.16422445  0.25151405  0.57451544     0.07600
F2873       F  0.99590807  0.18240969  0.54489208    -0.19900
F2874       F  0.05827917  0.22173383  0.53935290    -0.16100
F2875       F  0.02863753  0.24499168  0.55168100    -0.19600
F2876       F  0.13100882  0.21979872  0.59770403    -0.23000
F2877       F  0.09989596  0.15407206  0.59651637    -0.24500
F2878       F  0.07232737  0.18393013  0.60662157    -0.18500
F2879       F  0.23167751  0.29738620  0.57432576    -0.21000
F2880       F  0.26837592  0.27248253  0.56770101    -0.22100
F2881       F  0.25218022  0.26879943  0.58840374    -0.19300
F2882       F  0.10411984  0.08679871  0.56429294    -0.19400
F2883       F  0.07915686  0.12080139  0.55505606    -0.23200
F2884       F  0.06979331  0.10649996  0.57588748    -0.24800
C2885       C  0.01473068  0.29405448  0.51623987    -0.11600
C2886       C  0.00661138  0.26561935  0.50692820     0.10900
C2887       C  0.97552771  0.22693290  0.50878269    -0.03400
C2888       C  0.95234645  0.21850843  0.51971237    -0.06200
C2889       C  0.95980522  0.24711639  0.52896900    -0.17000
C2890       C  0.99208716  0.28548215  0.52733072     0.02000
C2891       C  0.03236714  0.27695572  0.49558659     0.11900
C2892       C  0.96724267  0.19459589  0.49934369     0.62500
H2893       H  0.92827309  0.18910375  0.52119991     0.11900
C2894       C  0.00353204  0.31700935  0.53734939     0.54700
H2895       H  0.03930669  0.32316935  0.51474430     0.07700
C2896       C  0.02756834  0.29661743  0.48508066    -0.06100
C2897       C  0.05370755  0.30703939  0.47481228    -0.06800
C2898       C  0.08400983  0.29792870  0.47464339    -0.16400
C2899       C  0.08811706  0.27754373  0.48517877    -0.02000
C2900       C  0.06261790  0.26818739  0.49554961    -0.09500
C2901       C  0.99516316  0.30679635  0.48482281     0.64700
H2902       H  0.05050226  0.32234569  0.46675664     0.10200
C2903       C  0.11944543  0.26603052  0.48570096     0.63100
H2904       H  0.06577921  0.25344209  0.50377480     0.07600
F2905       F  0.97542066  0.32806096  0.53785199    -0.19900
F2906       F  0.03906043  0.34997901  0.53469540    -0.16100
F2907       F  0.00692149  0.30315985  0.54909852    -0.19600
F2908       F  0.99883701  0.18856638  0.49887571    -0.23000
F2909       F  0.96070746  0.20484036  0.48740179    -0.24500
F2910       F  0.93461211  0.15953862  0.50265231    -0.18500
F2911       F  0.12061055  0.25020598  0.49733219    -0.21000
F2912       F  0.15577210  0.29858617  0.48368807    -0.22100
F2913       F  0.11175829  0.23804925  0.47655357    -0.19300
F2914       F  0.99320945  0.32262062  0.47328166    -0.19400
F2915       F  0.00179777  0.33382042  0.49422910    -0.23200
F2916       F  0.95932076  0.27362141  0.48686275    -0.24800
loop_ 
_geom_bond_atom_site_label_1 
_geom_bond_atom_site_label_2 
_geom_bond_distance 
_geom_bond_site_symmetry_2 
_ccdc_geom_bond_type 
Zr1           O2   2.439       .  S
Zr1           O3   2.427       .  S
Zr1           O4   2.420       .  S
Zr1           O7   2.429       .  S
Zr1           O9   2.380       .  S
Zr1          O10   2.380       .  S
Zr1          O11   2.407       .  S
Zr1          O12   2.402       .  S
O2           H58   0.991       .  S
O2           H66   0.990       .  S
O3           C23   1.281       .  A
O4           C25   1.282       .  A
O5          Zr15   2.435       .  S
O5           C24   1.284       .  A
O6          Zr14   2.452       .  S
O6           C25   1.288       .  A
O7           C24   1.284       .  A
O8          Zr16   2.425       .  S
O8           C23   1.283       .  A
O9          Zr14   2.388       .  S
O9          Zr16   2.367       .  S
O10         Zr15   2.388       .  S
O10         Zr16   2.379       .  S
O10          H45   0.966       .  S
O11         Zr14   2.398       .  S
O11         Zr31   2.402       .  S
O11          H48   0.966       .  S
O12         Zr15   2.391       .  S
O12         Zr31   2.400       .  S
Zr13         O38   2.440       .  S
Zr13         O32   2.438       .  S
Zr13         O40   2.445       .  S
Zr13         O28   2.429       .  S
Zr13         O19   2.392       .  S
Zr13         O20   2.415       .  S
Zr13         O21   2.382       .  S
Zr13         O22   2.384       .  S
Zr14         O33   2.436       .  S
Zr14         O26   2.433       .  S
Zr14         O27   2.440       .  S
Zr14         O20   2.404       .  S
Zr14         O21   2.392       .  S
Zr15         O17   2.436       .  S
Zr15         O39   2.439       .  S
Zr15         O41   2.420       .  S
Zr15         O19   2.388       .  S
Zr15         O22   2.396       .  S
Zr16         O42   2.435       .  S
Zr16         O43   2.436       .  S
Zr16         O18   2.437       .  S
Zr16         O19   2.387       .  S
Zr16         O20   2.399       .  S
O17          H54   0.990       .  S
O18          H49   0.990   1_655  S
O18          H63   0.990       .  S
O20          H46   0.966       .  S
O21         Zr31   2.372       .  S
O22         Zr31   2.388       .  S
O22          H47   0.966       .  S
C23        C2857   1.479   1_655  S
C24        C2802   1.491       .  S
C25        C2889   1.491       .  S
O26          H62   0.990       .  S
O27          C29   1.286       .  A
O28          C29   1.282       .  A
C29        C2770   1.480       .  S
O30         Zr31   2.439       .  S
O30          H59   0.991       .  S
Zr31         O34   2.437       .  S
Zr31         O35   2.439       .  S
Zr31         O36   2.422       .  S
O32          C37   1.283       .  A
O33          H50   0.990       .  S
O33          H65   0.990       .  S
O34          H51   0.990       .  S
O35          H55   0.990       .  S
O35          H64   0.990       .  S
O36          C37   1.283       .  A
C37        C2834   1.488       .  S
O38          H57   0.990       .  S
O38          H61   0.990       .  S
O39          H53   0.990       .  S
O39          H60   0.990       .  S
O40          C44   1.285       .  A
O41          C44   1.282       .  A
O42          H52   0.990       .  S
O43          H56   0.990       .  S
C44        C2729   1.480       .  S
Zr67         O68   2.435       .  S
Zr67         O69   2.419       .  S
Zr67         O70   2.445       .  S
Zr67         O73   2.432       .  S
Zr67         O75   2.375       .  S
Zr67         O76   2.382       .  S
Zr67         O77   2.404       .  S
Zr67         O78   2.399       .  S
O68         H124   0.990       .  S
O68         H132   0.989       .  S
O69          C89   1.281       .  A
O70          C91   1.287       .  A
O71         Zr81   2.442       .  S
O71          C90   1.285       .  A
O72         Zr80   2.445       .  S
O72          C91   1.287       .  A
O73          C90   1.286       .  A
O74         Zr82   2.436       .  S
O74          C89   1.285       .  A
O75         Zr80   2.383       .  S
O75         Zr82   2.362       .  S
O76         Zr81   2.389       .  S
O76         Zr82   2.377       .  S
O76         H111   0.966       .  S
O77         Zr80   2.399       .  S
O77         Zr97   2.406       .  S
O77         H114   0.966       .  S
O78         Zr81   2.389       .  S
O78         Zr97   2.395       .  S
Zr79        O104   2.441       .  S
Zr79         O98   2.444       .  S
Zr79        O106   2.446       .  S
Zr79         O94   2.434       .  S
Zr79         O85   2.395       .  S
Zr79         O86   2.413       .  S
Zr79         O87   2.380       .  S
Zr79         O88   2.384       .  S
Zr80         O99   2.439       .  S
Zr80         O92   2.434       .  S
Zr80         O93   2.436       .  S
Zr80         O86   2.403       .  S
Zr80         O87   2.392       .  S
Zr81         O83   2.435       .  S
Zr81        O105   2.440       .  S
Zr81        O107   2.434       .  S
Zr81         O85   2.389       .  S
Zr81         O88   2.396       .  S
Zr82        O108   2.434       .  S
Zr82        O109   2.435       .  S
Zr82         O84   2.436       .  S
Zr82         O85   2.388       .  S
Zr82         O86   2.404       .  S
O83         H120   0.990       .  S
O84         H115   0.990       .  S
O84         H129   0.990       .  S
O86         H112   0.966       .  S
O87         Zr97   2.370       .  S
O88         Zr97   2.391       .  S
O88         H113   0.965       .  S
C89        C2706   1.472       .  S
C90        C2601   1.495       .  S
C91        C2898   1.499       .  S
O92         H128   0.990       .  S
O93          C95   1.285       .  A
O94          C95   1.282       .  A
C95        C2633   1.483       .  S
O96         Zr97   2.435       .  S
O96         H125   0.990       .  S
Zr97        O100   2.435       .  S
Zr97        O101   2.438       .  S
Zr97        O102   2.423       .  S
O98         C103   1.285       .  A
O99         H116   0.990       .  S
O99         H131   0.990       .  S
O100        H117   0.990       .  S
O101        H121   0.990       .  S
O101        H130   0.990       .  S
O102        C103   1.282       .  A
C103       C2674   1.487       .  S
O104        H123   0.990       .  S
O104        H127   0.990       .  S
O105        H119   0.990       .  S
O105        H126   0.990       .  S
O106        C110   1.287       .  A
O107        C110   1.284       .  A
O108        H118   0.990       .  S
O109        H122   0.990       .  S
C110       C2569   1.481       .  S
Zr133       O134   2.439       .  S
Zr133       O135   2.434       .  S
Zr133       O136   2.413       .  S
Zr133       O139   2.431       .  S
Zr133       O141   2.386       .  S
Zr133       O142   2.375       .  S
Zr133       O143   2.408       .  S
Zr133       O144   2.400       .  S
O134        H190   0.990       .  S
O134        H198   0.990       .  S
O135        C155   1.284       .  A
O136        C157   1.282       .  A
O137       Zr147   2.438       .  S
O137        C156   1.286       .  A
O138       Zr146   2.453       .  S
O138        C157   1.288       .  A
O139        C156   1.284       .  A
O140       Zr148   2.422       .  S
O140        C155   1.282       .  A
O141       Zr146   2.389       .  S
O141       Zr148   2.367       .  S
O142       Zr147   2.380       .  S
O142       Zr148   2.378       .  S
O142        H177   0.965       .  S
O143       Zr146   2.393       .  S
O143       Zr163   2.403       .  S
O143        H180   0.966       .  S
O144       Zr147   2.383       .  S
O144       Zr163   2.393       .  S
Zr145       O170   2.441       .  S
Zr145       O164   2.438       .  S
Zr145       O172   2.448       .  S
Zr145       O160   2.444       .  S
Zr145       O151   2.395       .  S
Zr145       O152   2.416       .  S
Zr145       O153   2.386       .  S
Zr145       O154   2.389       .  S
Zr146       O165   2.433       .  S
Zr146       O158   2.435       .  S
Zr146       O159   2.434       .  S
Zr146       O152   2.404       .  S
Zr146       O153   2.391       .  S
Zr147       O149   2.435       .  S
Zr147       O171   2.441       .  S
Zr147       O173   2.417       .  S
Zr147       O151   2.391       .  S
Zr147       O154   2.396       .  S
Zr148       O174   2.435       .  S
Zr148       O175   2.435       .  S
Zr148       O150   2.437       .  S
Zr148       O151   2.385       .  S
Zr148       O152   2.399       .  S
O149        H186   0.990       .  S
O150        H181   0.990       .  S
O150        H195   0.988       .  S
O152        H178   0.966       .  S
O153       Zr163   2.378       .  S
O154       Zr163   2.388       .  S
O154        H179   0.965       .  S
C155       C2610   1.475   1_565  S
C156       C2473   1.485       .  S
C157       C2537   1.491       .  S
O158        H194   0.989       .  S
O159        C161   1.284       .  A
O160        C161   1.284       .  A
C161       C2514   1.484       .  S
O162       Zr163   2.436       .  S
O162        H191   0.990       .  S
Zr163       O166   2.435       .  S
Zr163       O167   2.440       .  S
Zr163       O168   2.416       .  S
O164        C169   1.283       .  A
O165        H182   0.990       .  S
O165        H197   0.990       .  S
O166        H183   0.989       .  S
O167        H187   0.990       .  S
O167        H196   0.990       .  S
O168        C169   1.282       .  A
C169       C2642   1.485       .  S
O170        H189   0.990       .  S
O170        H193   0.990       .  S
O171        H185   0.990       .  S
O171        H192   0.990       .  S
O172        C176   1.288       .  A
O173        C176   1.281       .  A
O174        H184   0.990       .  S
O175        H188   0.990       .  S
C176       C2441   1.489       .  S
Zr199       O200   2.433       .  S
Zr199       O201   2.432       .  S
Zr199       O202   2.445       .  S
Zr199       O205   2.444       .  S
Zr199       O207   2.380       .  S
Zr199       O208   2.377       .  S
Zr199       O209   2.411       .  S
Zr199       O210   2.402       .  S
O200        H256   0.990       .  S
O200        H264   0.989       .  S
O201        C221   1.283       .  A
O202        C223   1.287       .  A
O203       Zr213   2.428       .  S
O203        C222   1.282       .  A
O204       Zr212   2.428       .  S
O204        C223   1.285       .  A
O205        C222   1.287       .  A
O206       Zr214   2.424       .  S
O206        C221   1.283       .  A
O207       Zr212   2.388       .  S
O207       Zr214   2.368       .  S
O208       Zr213   2.385       .  S
O208       Zr214   2.373       .  S
O208        H243   0.966       .  S
O209       Zr212   2.398       .  S
O209       Zr229   2.410       .  S
O209        H246   0.966       .  S
O210       Zr213   2.381       .  S
O210       Zr229   2.396       .  S
Zr211       O236   2.441       .  S
Zr211       O230   2.443       .  S
Zr211       O238   2.450       .  S
Zr211       O226   2.432       .  S
Zr211       O217   2.399       .  S
Zr211       O218   2.409       .  S
Zr211       O219   2.380       .  S
Zr211       O220   2.383       .  S
Zr212       O231   2.434       .  S
Zr212       O224   2.436       .  S
Zr212       O225   2.428       .  S
Zr212       O218   2.396       .  S
Zr212       O219   2.390       .  S
Zr213       O215   2.435       .  S
Zr213       O237   2.439       .  S
Zr213       O239   2.407       .  S
Zr213       O217   2.391       .  S
Zr213       O220   2.393       .  S
Zr214       O240   2.435       .  S
Zr214       O241   2.435       .  S
Zr214       O216   2.436       .  S
Zr214       O217   2.388       .  S
Zr214       O218   2.398       .  S
O215        H252   0.990       .  S
O216        H247   0.990       .  S
O216        H261   0.990       .  S
O218        H244   0.966       .  S
O219       Zr229   2.375       .  S
O220       Zr229   2.382       .  S
O220        H245   0.966       .  S
C221       C2386   1.481       .  S
C222       C2866   1.488       .  S
C223       C2546   1.491       .  S
O224        H260   0.990       .  S
O225        C227   1.284       .  A
O226        C227   1.283       .  A
C227       C2825   1.477       .  S
O228       Zr229   2.437       .  S
O228        H257   0.990       .  S
Zr229       O232   2.436       .  S
Zr229       O233   2.439       .  S
Zr229       O234   2.439       .  S
O230        C235   1.286       .  A
O231        H248   0.990       .  S
O231        H263   0.990       .  S
O232        H249   0.990       .  S
O233        H253   0.990       .  S
O233        H262   0.989       .  S
O234        C235   1.285       .  A
C235       C2418   1.501       .  S
O236        H255   0.990       .  S
O236        H259   0.990       .  S
O237        H251   0.990       .  S
O237        H258   0.990       .  S
O238        C242   1.286       .  A
O239        C242   1.280       .  A
O240        H250   0.990       .  S
O241        H254   0.990       .  S
C242       C2345   1.472       .  S
Zr265       O266   2.438       .  S
Zr265       O267   2.431       .  S
Zr265       O268   2.436       .  S
Zr265       O271   2.450       .  S
Zr265       O273   2.382       .  S
Zr265       O274   2.379       .  S
Zr265       O275   2.410       .  S
Zr265       O276   2.397       .  S
O266        H322   0.990       .  S
O266        H330   0.990       .  S
O267        C287   1.284       .  A
O268        C289   1.284       .  A
O269       Zr279   2.428       .  S
O269        C288   1.282       .  A
O270       Zr278   2.445       .  S
O270        C289   1.287       .  A
O271        C288   1.290       .  A
O272       Zr280   2.443       .  S
O272        C287   1.285       .  A
O273       Zr278   2.387       .  S
O273       Zr280   2.365       .  S
O274       Zr279   2.387       .  S
O274       Zr280   2.376       .  S
O274        H309   0.965       .  S
O275       Zr278   2.402       .  S
O275       Zr295   2.408       .  S
O275        H312   0.966       .  S
O276       Zr279   2.390       .  S
O276       Zr295   2.395       .  S
Zr277       O302   2.438       .  S
Zr277       O296   2.443       .  S
Zr277       O304   2.456       .  S
Zr277       O292   2.436       .  S
Zr277       O283   2.399       .  S
Zr277       O284   2.417       .  S
Zr277       O285   2.379       .  S
Zr277       O286   2.381       .  S
Zr278       O297   2.435       .  S
Zr278       O290   2.436       .  S
Zr278       O291   2.442       .  S
Zr278       O284   2.399       .  S
Zr278       O285   2.390       .  S
Zr279       O281   2.435       .  S
Zr279       O303   2.441       .  S
Zr279       O305   2.421       .  S
Zr279       O283   2.388       .  S
Zr279       O286   2.393       .  S
Zr280       O306   2.435       .  S
Zr280       O307   2.435       .  S
Zr280       O282   2.437       .  S
Zr280       O283   2.392       .  S
Zr280       O284   2.408       .  S
O281        H318   0.990       .  S
O282        H313   0.990       .  S
O282        H327   0.990       .  S
O284        H310   0.966       .  S
O285       Zr295   2.371       .  S
O286       Zr295   2.384       .  S
O286        H311   0.966       .  S
C287       C2482   1.494       .  S
C288       C2697   1.501   1_565  S
C289       C2322   1.480       .  S
O290        H326   0.990       .  S
O291        C293   1.286       .  A
O292        C293   1.282       .  A
C293       C2665   1.486       .  S
O294       Zr295   2.439       .  S
O294        H323   0.991       .  S
Zr295       O298   2.438       .  S
Zr295       O299   2.439       .  S
Zr295       O300   2.431       .  S
O296        C301   1.285       .  A
O297        H314   0.990       .  S
O297        H329   0.990       .  S
O298        H315   0.990       .  S
O299        H319   0.990       .  S
O299        H328   0.990       .  S
O300        C301   1.284       .  A
C301       C2505   1.491       .  S
O302        H321   0.990       .  S
O302        H325   0.990       .  S
O303        H317   0.990       .  S
O303        H324   0.990       .  S
O304        C308   1.288       .  A
O305        C308   1.284       .  A
O306        H316   0.990       .  S
O307        H320   0.990       .  S
C308       C2290   1.499       .  S
Zr331       O332   2.439       .  S
Zr331       O333   2.429       .  S
Zr331       O334   2.447       .  S
Zr331       O337   2.438       .  S
Zr331       O339   2.382       .  S
Zr331       O340   2.384       .  S
Zr331       O341   2.407       .  S
Zr331       O342   2.404       .  S
O332        H388   0.991       .  S
O332        H396   0.990       .  S
O333        C353   1.282       .  A
O334        C355   1.288       .  A
O335       Zr345   2.420       .  S
O335        C354   1.280       .  A
O336       Zr344   2.442       .  S
O336        C355   1.284       .  A
O337        C354   1.286       .  A
O338       Zr346   2.439       .  S
O338        C353   1.285       .  A
O339       Zr344   2.393       .  S
O339       Zr346   2.374       .  S
O340       Zr345   2.392       .  S
O340       Zr346   2.379       .  S
O340        H375   0.966       .  S
O341       Zr344   2.400       .  S
O341       Zr361   2.406       .  S
O341        H378   0.966       .  S
O342       Zr345   2.388       .  S
O342       Zr361   2.391       .  S
Zr343       O368   2.442       .  S
Zr343       O362   2.444       .  S
Zr343       O370   2.444       .  S
Zr343       O358   2.438       .  S
Zr343       O349   2.394       .  S
Zr343       O350   2.419       .  S
Zr343       O351   2.379       .  S
Zr343       O352   2.386       .  S
Zr344       O363   2.433       .  S
Zr344       O356   2.432       .  S
Zr344       O357   2.442       .  S
Zr344       O350   2.401       .  S
Zr344       O351   2.392       .  S
Zr345       O347   2.436       .  S
Zr345       O369   2.440       .  S
Zr345       O371   2.414       .  S
Zr345       O349   2.382       .  S
Zr345       O352   2.394       .  S
Zr346       O372   2.436       .  S
Zr346       O373   2.436       .  S
Zr346       O348   2.435       .  S
Zr346       O349   2.381       .  S
Zr346       O350   2.410       .  S
O347        H384   0.990       .  S
O348        H379   0.990       .  S
O348        H393   0.990       .  S
O350        H376   0.965       .  S
O351       Zr361   2.377       .  S
O352       Zr361   2.382       .  S
O352        H377   0.966       .  S
C353       C2793   1.485       .  S
C354       C2377   1.483   1_655  S
C355       C2313   1.511       .  S
O356        H392   0.989       .  S
O357        C359   1.285       .  A
O358        C359   1.282       .  A
C359       C2409   1.482       .  S
O360       Zr361   2.436       .  S
O360        H389   0.990       .  S
Zr361       O364   2.434       .  S
Zr361       O365   2.438       .  S
Zr361       O366   2.416       .  S
O362        C367   1.284       .  A
O363        H380   0.990       .  S
O363        H395   0.990       .  S
O364        H381   0.990       .  S
O365        H385   0.990       .  S
O365        H394   0.990       .  S
O366        C367   1.282       .  A
C367       C2761   1.485       .  S
O368        H387   0.991       .  S
O368        H391   0.991       .  S
O369        H383   0.990       .  S
O369        H390   0.990       .  S
O370        C374   1.286       .  A
O371        C374   1.280       .  A
O372        H382   0.990       .  S
O373        H386   0.990       .  S
C374       C2249   1.466       .  S
Zr397       O398   2.434       .  S
Zr397       O399   2.423       .  S
Zr397       O400   2.431       .  S
Zr397       O403   2.415       .  S
Zr397       O405   2.380       .  S
Zr397       O406   2.379       .  S
Zr397       O407   2.402   1_455  S
Zr397       O408   2.399       .  S
O398        H454   0.990       .  S
O398        H462   0.990       .  S
O399        C419   1.281       .  A
O400        C421   1.284       .  A
O401       Zr411   2.439       .  S
O401        C420   1.285       .  A
O402       Zr410   2.455   1_455  S
O402        C421   1.289       .  A
O403        C420   1.280       .  A
O404       Zr412   2.413       .  S
O404        C419   1.281       .  A
O405       Zr410   2.383   1_455  S
O405       Zr412   2.370       .  S
O406       Zr411   2.383       .  S
O406       Zr412   2.378       .  S
O406        H441   0.966       .  S
O407       Zr410   2.395       .  S
O407       Zr427   2.407       .  S
O407        H444   0.966       .  S
O408       Zr411   2.388       .  S
O408       Zr427   2.400   1_455  S
Zr409       O434   2.439       .  S
Zr409       O428   2.445       .  S
Zr409       O436   2.480       .  S
Zr409       O424   2.437       .  S
Zr409       O415   2.387   1_655  S
Zr409       O416   2.415       .  S
Zr409       O417   2.384       .  S
Zr409       O418   2.391       .  S
Zr410       O429   2.437       .  S
Zr410       O422   2.435       .  S
Zr410       O423   2.434       .  S
Zr410       O416   2.403       .  S
Zr410       O417   2.396       .  S
Zr411       O413   2.436       .  S
Zr411       O435   2.441       .  S
Zr411       O437   2.421       .  S
Zr411       O415   2.389       .  S
Zr411       O418   2.402   1_455  S
Zr412       O438   2.435       .  S
Zr412       O439   2.434       .  S
Zr412       O414   2.437       .  S
Zr412       O415   2.378       .  S
Zr412       O416   2.397   1_455  S
O413        H450   0.990       .  S
O414        H445   0.990       .  S
O414        H459   0.989   1_455  S
O416        H442   0.966       .  S
O417       Zr427   2.370       .  S
O418       Zr427   2.393       .  S
O418        H443   0.966       .  S
C419       C2089   1.478       .  S
C420       C2162   1.477       .  S
C421       C2226   1.487       .  S
O422        H458   0.990       .  S
O423        C425   1.286       .  A
O424        C425   1.284       .  A
C425       C2185   1.483       .  S
O426       Zr427   2.436       .  S
O426        H455   0.990   1_655  S
Zr427       O430   2.437       .  S
Zr427       O431   2.436       .  S
Zr427       O432   2.435       .  S
O428        C433   1.285       .  A
O429        H446   0.990       .  S
O429        H461   0.990       .  S
O430        H447   0.990       .  S
O431        H451   0.990       .  S
O431        H460   0.990   1_655  S
O432        C433   1.285       .  A
C433       C2121   1.493       .  S
O434        H453   0.989       .  S
O434        H457   0.990       .  S
O435        H449   0.990       .  S
O435        H456   0.990       .  S
O436        C440   1.292       .  A
O437        C440   1.282   1_455  A
O438        H448   0.990       .  S
O439        H452   0.990   1_455  S
C440       C2057   1.490       .  S
Zr463       O464   2.438       .  S
Zr463       O465   2.448       .  S
Zr463       O466   2.447       .  S
Zr463       O469   2.438       .  S
Zr463       O471   2.377       .  S
Zr463       O472   2.383       .  S
Zr463       O473   2.413       .  S
Zr463       O474   2.413       .  S
O464        H520   0.990       .  S
O464        H528   0.990       .  S
O465        C485   1.287       .  A
O466        C487   1.289       .  A
O467       Zr477   2.450       .  S
O467        C486   1.286       .  A
O468       Zr476   2.439       .  S
O468        C487   1.285       .  A
O469        C486   1.285       .  A
O470       Zr478   2.430       .  S
O470        C485   1.282       .  A
O471       Zr476   2.395       .  S
O471       Zr478   2.367       .  S
O472       Zr477   2.390       .  S
O472       Zr478   2.382       .  S
O472        H507   0.966       .  S
O473       Zr476   2.400       .  S
O473       Zr493   2.410       .  S
O473        H510   0.966       .  S
O474       Zr477   2.386       .  S
O474       Zr493   2.407       .  S
Zr475       O500   2.439       .  S
Zr475       O494   2.430       .  S
Zr475       O502   2.434       .  S
Zr475       O490   2.435       .  S
Zr475       O481   2.394       .  S
Zr475       O482   2.401       .  S
Zr475       O483   2.377       .  S
Zr475       O484   2.387       .  S
Zr476       O495   2.438       .  S
Zr476       O488   2.436       .  S
Zr476       O489   2.448       .  S
Zr476       O482   2.398       .  S
Zr476       O483   2.384       .  S
Zr477       O479   2.435       .  S
Zr477       O501   2.435       .  S
Zr477       O503   2.428       .  S
Zr477       O481   2.392       .  S
Zr477       O484   2.389       .  S
Zr478       O504   2.435       .  S
Zr478       O505   2.435       .  S
Zr478       O480   2.437       .  S
Zr478       O481   2.387       .  S
Zr478       O482   2.399       .  S
O479        H516   0.990       .  S
O480        H511   0.989       .  S
O480        H525   0.990       .  S
O482        H508   0.966       .  S
O483       Zr493   2.365       .  S
O484       Zr493   2.383       .  S
O484        H509   0.966       .  S
C485       C1961   1.496       .  S
C486       C2025   1.486       .  S
C487       C2217   1.501       .  S
O488        H524   0.990       .  S
O489        C491   1.287       .  A
O490        C491   1.285       .  A
C491       C2002   1.499       .  S
O492       Zr493   2.436       .  S
O492        H521   0.990       .  S
Zr493       O496   2.435       .  S
Zr493       O497   2.439       .  S
Zr493       O498   2.445       .  S
O494        C499   1.283       .  A
O495        H512   0.990       .  S
O495        H527   0.990       .  S
O496        H513   0.990       .  S
O497        H517   0.990       .  S
O497        H526   0.990       .  S
O498        C499   1.287       .  A
C499       C1929   1.493       .  S
O500        H519   0.990       .  S
O500        H523   0.990       .  S
O501        H515   0.990       .  S
O501        H522   0.990       .  S
O502        C506   1.285       .  A
O503        C506   1.285       .  A
O504        H514   0.990       .  S
O505        H518   0.990       .  S
C506       C2578   1.490       .  S
Zr529       O530   2.438       .  S
Zr529       O531   2.435       .  S
Zr529       O532   2.441       .  S
Zr529       O535   2.438       .  S
Zr529       O537   2.381       .  S
Zr529       O538   2.380       .  S
Zr529       O539   2.407       .  S
Zr529       O540   2.406       .  S
O530        H586   0.990       .  S
O530        H594   0.990       .  S
O531        C551   1.285       .  A
O532        C553   1.287       .  A
O533       Zr543   2.452       .  S
O533        C552   1.288       .  A
O534       Zr542   2.444       .  S
O534        C553   1.286       .  A
O535        C552   1.287       .  A
O536       Zr544   2.449       .  S
O536        C551   1.286       .  A
O537       Zr542   2.396       .  S
O537       Zr544   2.366       .  S
O538       Zr543   2.386       .  S
O538       Zr544   2.371       .  S
O538        H573   0.967       .  S
O539       Zr542   2.405       .  S
O539       Zr559   2.404       .  S
O539        H576   0.966       .  S
O540       Zr543   2.392       .  S
O540       Zr559   2.398       .  S
Zr541       O566   2.440       .  S
Zr541       O560   2.452       .  S
Zr541       O568   2.450       .  S
Zr541       O556   2.440       .  S
Zr541       O547   2.409       .  S
Zr541       O548   2.409       .  S
Zr541       O549   2.379       .  S
Zr541       O550   2.385       .  S
Zr542       O561   2.437       .  S
Zr542       O554   2.435       .  S
Zr542       O555   2.457       .  S
Zr542       O548   2.395       .  S
Zr542       O549   2.389       .  S
Zr543       O545   2.435       .  S
Zr543       O567   2.436       .  S
Zr543       O569   2.425       .  S
Zr543       O547   2.393       .  S
Zr543       O550   2.395       .  S
Zr544       O570   2.434       .  S
Zr544       O571   2.434       .  S
Zr544       O546   2.436       .  S
Zr544       O547   2.400       .  S
Zr544       O548   2.403       .  S
O545        H582   0.990       .  S
O546        H577   0.990       .  S
O546        H591   0.990       .  S
O548        H574   0.966       .  S
O549       Zr559   2.375       .  S
O550       Zr559   2.380       .  S
O550        H575   0.966       .  S
C551       C2034   1.508       .  S
C552       C1865   1.497       .  S
C553       C1897   1.500       .  S
O554        H590   0.990       .  S
O555        C557   1.288       .  A
O556        C557   1.287       .  A
C557       C1833   1.507       .  S
O558       Zr559   2.438       .  S
O558        H587   0.991       .  S
Zr559       O562   2.437       .  S
Zr559       O563   2.441       .  S
Zr559       O564   2.425       .  S
O560        C565   1.287       .  A
O561        H578   0.990       .  S
O561        H593   0.990       .  S
O562        H579   0.990       .  S
O563        H583   0.990   1_565  S
O563        H592   0.990       .  S
O564        C565   1.282       .  A
C565       C1993   1.489   1_565  S
O566        H585   0.990       .  S
O566        H589   0.990       .  S
O567        H581   0.989       .  S
O567        H588   0.988       .  S
O568        C572   1.288       .  A
O569        C572   1.283       .  A
O570        H580   0.990       .  S
O571        H584   0.990       .  S
C572       C2281   1.493       .  S
Zr595       O596   2.432       .  S
Zr595       O597   2.426       .  S
Zr595       O598   2.444       .  S
Zr595       O601   2.433       .  S
Zr595       O603   2.381       .  S
Zr595       O604   2.379       .  S
Zr595       O605   2.404       .  S
Zr595       O606   2.400       .  S
O596        H652   0.989       .  S
O596        H660   0.989       .  S
O597        C617   1.282       .  A
O598        C619   1.287       .  A
O599       Zr609   2.426       .  S
O599        C618   1.281       .  A
O600       Zr608   2.441       .  S
O600        C619   1.287       .  A
O601        C618   1.285       .  A
O602       Zr610   2.424       .  S
O602        C617   1.283       .  A
O603       Zr608   2.386       .  S
O603       Zr610   2.372       .  S
O604       Zr609   2.388       .  S
O604       Zr610   2.377       .  S
O604        H639   0.966       .  S
O605       Zr608   2.397       .  S
O605       Zr625   2.395       .  S
O605        H642   0.966       .  S
O606       Zr609   2.383       .  S
O606       Zr625   2.390       .  S
Zr607       O632   2.441       .  S
Zr607       O626   2.433       .  S
Zr607       O634   2.459       .  S
Zr607       O622   2.451       .  S
Zr607       O613   2.399       .  S
Zr607       O614   2.410       .  S
Zr607       O615   2.381       .  S
Zr607       O616   2.391       .  S
Zr608       O627   2.436       .  S
Zr608       O620   2.435       .  S
Zr608       O621   2.436       .  S
Zr608       O614   2.400       .  S
Zr608       O615   2.389       .  S
Zr609       O611   2.436       .  S
Zr609       O633   2.439       .  S
Zr609       O635   2.419       .  S
Zr609       O613   2.395       .  S
Zr609       O616   2.390       .  S
Zr610       O636   2.438       .  S
Zr610       O637   2.435       .  S
Zr610       O612   2.435       .  S
Zr610       O613   2.387       .  S
Zr610       O614   2.402       .  S
O611        H648   0.990       .  S
O612        H643   0.990       .  S
O612        H657   0.990       .  S
O614        H640   0.967       .  S
O615       Zr625   2.374       .  S
O616       Zr625   2.387       .  S
O616        H641   0.965       .  S
C617       C1778   1.480       .  S
C618       C2098   1.481       .  S
C619       C1906   1.492       .  S
O620        H656   0.990       .  S
O621        C623   1.286       .  A
O622        C623   1.287       .  A
C623       C2130   1.494       .  S
O624       Zr625   2.439       .  S
O624        H653   0.990       .  S
Zr625       O628   2.437       .  S
Zr625       O629   2.439       .  S
Zr625       O630   2.412       .  S
O626        C631   1.283       .  A
O627        H644   0.990       .  S
O627        H659   0.990       .  S
O628        H645   0.990       .  S
O629        H649   0.990       .  S
O629        H658   0.990       .  S
O630        C631   1.281       .  A
C631       C1801   1.479       .  S
O632        H651   0.990       .  S
O632        H655   0.990       .  S
O633        H647   0.990       .  S
O633        H654   0.990       .  S
O634        C638   1.290       .  A
O635        C638   1.280       .  A
O636        H646   0.989       .  S
O637        H650   0.990       .  S
C638       C1746   1.497       .  S
Zr661       O662   2.438       .  S
Zr661       O663   2.427       .  S
Zr661       O664   2.419       .  S
Zr661       O667   2.428       .  S
Zr661       O669   2.380   1_565  S
Zr661       O670   2.373       .  S
Zr661       O671   2.410   1_565  S
Zr661       O672   2.401   1_565  S
O662        H718   0.991       .  S
O662        H726   0.990       .  S
O663        C683   1.284       .  A
O664        C685   1.281   1_565  A
O665       Zr675   2.435   1_565  S
O665        C684   1.283       .  A
O666       Zr674   2.439       .  S
O666        C685   1.286       .  A
O667        C684   1.285       .  A
O668       Zr676   2.430   1_565  S
O668        C683   1.282       .  A
O669       Zr674   2.388       .  S
O669       Zr676   2.370       .  S
O670       Zr675   2.382   1_565  S
O670       Zr676   2.378   1_565  S
O670        H705   0.966       .  S
O671       Zr674   2.400       .  S
O671       Zr691   2.410       .  S
O671        H708   0.966       .  S
O672       Zr675   2.384       .  S
O672       Zr691   2.404       .  S
Zr673       O698   2.435       .  S
Zr673       O692   2.426       .  S
Zr673       O700   2.447       .  S
Zr673       O688   2.427       .  S
Zr673       O679   2.393       .  S
Zr673       O680   2.411       .  S
Zr673       O681   2.377       .  S
Zr673       O682   2.386       .  S
Zr674       O693   2.435       .  S
Zr674       O686   2.434       .  S
Zr674       O687   2.433       .  S
Zr674       O680   2.402       .  S
Zr674       O681   2.387       .  S
Zr675       O677   2.435       .  S
Zr675       O699   2.438   1_545  S
Zr675       O701   2.402       .  S
Zr675       O679   2.389       .  S
Zr675       O682   2.392       .  S
Zr676       O702   2.436   1_545  S
Zr676       O703   2.437       .  S
Zr676       O678   2.437       .  S
Zr676       O679   2.386       .  S
Zr676       O680   2.403       .  S
O677        H714   0.990       .  S
O678        H709   0.990   1_545  S
O678        H723   0.990       .  S
O680        H706   0.966       .  S
O681       Zr691   2.370       .  S
O682       Zr691   2.383       .  S
O682        H707   0.965       .  S
C683       C2153   1.491       .  S
C684       C1769   1.493       .  S
C685       C1714   1.471   1_545  S
O686        H722   0.990       .  S
O687        C689   1.284       .  A
O688        C689   1.280       .  A
C689       C1810   1.480       .  S
O690       Zr691   2.440       .  S
O690        H719   0.990       .  S
Zr691       O694   2.437       .  S
Zr691       O695   2.440       .  S
Zr691       O696   2.440       .  S
O692        C697   1.281       .  A
O693        H710   0.990       .  S
O693        H725   0.989       .  S
O694        H711   0.990       .  S
O695        H715   0.990       .  S
O695        H724   0.990       .  S
O696        C697   1.286       .  A
C697       C2194   1.493       .  S
O698        H717   0.990       .  S
O698        H721   0.990       .  S
O699        H713   0.990       .  S
O699        H720   0.990       .  S
O700        C704   1.285       .  A
O701        C704   1.281       .  A
O702        H712   0.990       .  S
O703        H716   0.990       .  S
C704       C1682   1.502       .  S
Zr727       O728   2.439       .  S
Zr727       O729   2.421       .  S
Zr727       O730   2.431       .  S
Zr727       O733   2.442       .  S
Zr727       O735   2.383       .  S
Zr727       O736   2.383       .  S
Zr727       O737   2.403       .  S
Zr727       O738   2.393       .  S
O728        H784   0.990       .  S
O728        H792   0.990       .  S
O729        C749   1.283       .  A
O730        C751   1.285       .  A
O731       Zr741   2.429       .  S
O731        C750   1.283       .  A
O732       Zr740   2.445       .  S
O732        C751   1.285       .  A
O733        C750   1.288       .  A
O734       Zr742   2.446       .  S
O734        C749   1.286       .  A
O735       Zr740   2.390       .  S
O735       Zr742   2.365       .  S
O736       Zr741   2.381       .  S
O736       Zr742   2.379       .  S
O736        H771   0.965       .  S
O737       Zr740   2.399       .  S
O737       Zr757   2.398       .  S
O737        H774   0.966       .  S
O738       Zr741   2.387       .  S
O738       Zr757   2.387       .  S
Zr739       O764   2.438       .  S
Zr739       O758   2.460       .  S
Zr739       O766   2.458       .  S
Zr739       O754   2.432       .  S
Zr739       O745   2.407       .  S
Zr739       O746   2.417       .  S
Zr739       O747   2.383       .  S
Zr739       O748   2.380       .  S
Zr740       O759   2.434       .  S
Zr740       O752   2.436   1_565  S
Zr740       O753   2.438       .  S
Zr740       O746   2.400       .  S
Zr740       O747   2.389       .  S
Zr741       O743   2.435       .  S
Zr741       O765   2.438       .  S
Zr741       O767   2.410       .  S
Zr741       O745   2.386       .  S
Zr741       O748   2.390       .  S
Zr742       O768   2.435       .  S
Zr742       O769   2.437       .  S
Zr742       O744   2.437       .  S
Zr742       O745   2.405       .  S
Zr742       O746   2.402       .  S
O743        H780   0.990       .  S
O744        H775   0.990   1_565  S
O744        H789   0.990   1_565  S
O746        H772   0.966       .  S
O747       Zr757   2.374       .  S
O748       Zr757   2.381       .  S
O748        H773   0.966       .  S
C749       C1874   1.485       .  S
C750       C1970   1.486       .  S
C751       C1705   1.502       .  S
O752        H788   0.990       .  S
O753        C755   1.285       .  A
O754        C755   1.284       .  A
C755       C1938   1.487   1_565  S
O756       Zr757   2.438       .  S
O756        H785   0.990       .  S
Zr757       O760   2.436       .  S
Zr757       O761   2.440       .  S
Zr757       O762   2.414       .  S
O758        C763   1.289       .  A
O759        H776   0.990       .  S
O759        H791   0.989       .  S
O760        H777   0.990       .  S
O761        H781   0.990       .  S
O761        H790   0.990       .  S
O762        C763   1.282       .  A
C763       C1842   1.497       .  S
O764        H783   0.990       .  S
O764        H787   0.990       .  S
O765        H779   0.990       .  S
O765        H786   0.989       .  S
O766        C770   1.288       .  A
O767        C770   1.282       .  A
O768        H778   0.990       .  S
O769        H782   0.990       .  S
C770       C2450   1.496       .  S
Zr793       O794   2.434       .  S
Zr793       O795   2.448       .  S
Zr793       O796   2.446       .  S
Zr793       O799   2.425       .  S
Zr793       O801   2.379       .  S
Zr793       O802   2.378       .  S
Zr793       O803   2.408       .  S
Zr793       O804   2.407       .  S
O794        H850   0.989       .  S
O794        H858   0.989       .  S
O795        C815   1.288       .  A
O796        C817   1.287       .  A
O797       Zr807   2.422       .  S
O797        C816   1.283       .  A
O798       Zr806   2.427       .  S
O798        C817   1.285       .  A
O799        C816   1.282       .  A
O800       Zr808   2.417       .  S
O800        C815   1.280       .  A
O801       Zr806   2.383       .  S
O801       Zr808   2.371       .  S
O802       Zr807   2.379       .  S
O802       Zr808   2.380       .  S
O802        H837   0.965       .  S
O803       Zr806   2.386       .  S
O803       Zr823   2.407       .  S
O803        H840   0.966       .  S
O804       Zr807   2.378       .  S
O804       Zr823   2.402       .  S
Zr805       O830   2.441       .  S
Zr805       O824   2.423       .  S
Zr805       O832   2.473       .  S
Zr805       O820   2.448       .  S
Zr805       O811   2.385       .  S
Zr805       O812   2.413       .  S
Zr805       O813   2.387       .  S
Zr805       O814   2.391       .  S
Zr806       O825   2.436       .  S
Zr806       O818   2.429       .  S
Zr806       O819   2.419       .  S
Zr806       O812   2.404       .  S
Zr806       O813   2.391       .  S
Zr807       O809   2.436       .  S
Zr807       O831   2.440       .  S
Zr807       O833   2.396       .  S
Zr807       O811   2.386       .  S
Zr807       O814   2.393       .  S
Zr808       O834   2.433       .  S
Zr808       O835   2.436       .  S
Zr808       O810   2.436       .  S
Zr808       O811   2.377       .  S
Zr808       O812   2.389       .  S
O809        H846   0.990       .  S
O810        H841   0.990       .  S
O810        H855   0.990       .  S
O812        H838   0.966       .  S
O813       Zr823   2.374       .  S
O814       Zr823   2.388       .  S
O814        H839   0.965       .  S
C815       C1554   1.488       .  S
C816       C1618   1.484       .  S
C817       C1641   1.492       .  S
O818        H854   0.990       .  S
O819        C821   1.282       .  A
O820        C821   1.286       .  A
C821       C1586   1.475       .  S
O822       Zr823   2.442       .  S
O822        H851   0.990       .  S
Zr823       O826   2.437       .  S
Zr823       O827   2.440   1_655  S
Zr823       O828   2.439       .  S
O824        C829   1.281       .  A
O825        H842   0.990       .  S
O825        H857   0.990       .  S
O826        H843   0.990       .  S
O827        H847   0.990       .  S
O827        H856   0.990   1_455  S
O828        C829   1.284       .  A
C829       C1522   1.481   1_655  S
O830        H849   0.990       .  S
O830        H853   0.990       .  S
O831        H845   0.990       .  S
O831        H852   0.990       .  S
O832        C836   1.291       .  A
O833        C836   1.278       .  A
O834        H844   0.990       .  S
O835        H848   0.991       .  S
C836       C2258   1.476       .  S
Zr859       O860   2.438       .  S
Zr859       O861   2.425       .  S
Zr859       O862   2.437       .  S
Zr859       O865   2.428       .  S
Zr859       O867   2.377       .  S
Zr859       O868   2.383       .  S
Zr859       O869   2.402       .  S
Zr859       O870   2.402       .  S
O860        H916   0.990       .  S
O860        H924   0.990       .  S
O861        C881   1.284       .  A
O862        C883   1.286       .  A
O863       Zr873   2.440       .  S
O863        C882   1.285       .  A
O864       Zr872   2.446       .  S
O864        C883   1.286       .  A
O865        C882   1.283       .  A
O866       Zr874   2.424       .  S
O866        C881   1.281       .  A
O867       Zr872   2.381       .  S
O867       Zr874   2.369       .  S
O868       Zr873   2.388       .  S
O868       Zr874   2.379       .  S
O868        H903   0.966       .  S
O869       Zr872   2.396       .  S
O869       Zr889   2.402       .  S
O869        H906   0.966       .  S
O870       Zr873   2.387       .  S
O870       Zr889   2.400       .  S
Zr871       O896   2.440       .  S
Zr871       O890   2.436       .  S
Zr871       O898   2.446       .  S
Zr871       O886   2.440       .  S
Zr871       O877   2.397       .  S
Zr871       O878   2.411       .  S
Zr871       O879   2.377       .  S
Zr871       O880   2.383       .  S
Zr872       O891   2.435       .  S
Zr872       O884   2.434       .  S
Zr872       O885   2.431       .  S
Zr872       O878   2.402       .  S
Zr872       O879   2.393       .  S
Zr873       O875   2.436       .  S
Zr873       O897   2.438       .  S
Zr873       O899   2.414       .  S
Zr873       O877   2.396       .  S
Zr873       O880   2.396       .  S
Zr874       O900   2.436       .  S
Zr874       O901   2.436       .  S
Zr874       O876   2.437       .  S
Zr874       O877   2.388       .  S
Zr874       O878   2.400       .  S
O875        H912   0.990       .  S
O876        H907   0.990       .  S
O876        H921   0.990       .  S
O878        H904   0.966       .  S
O879       Zr889   2.369       .  S
O880       Zr889   2.383       .  S
O880        H905   0.966       .  S
C881       C1385   1.489       .  S
C882       C1449   1.474       .  S
C883       C1650   1.493       .  S
O884        H920   0.990       .  S
O885        C887   1.284       .  A
O886        C887   1.284       .  A
C887       C1481   1.480       .  S
O888       Zr889   2.435       .  S
O888        H917   0.990       .  S
Zr889       O892   2.435       .  S
Zr889       O893   2.439       .  S
Zr889       O894   2.430       .  S
O890        C895   1.283       .  A
O891        H908   0.990       .  S
O891        H923   0.990       .  S
O892        H909   0.990       .  S
O893        H913   0.990       .  S
O893        H922   0.990       .  S
O894        C895   1.284       .  A
C895       C1426   1.491       .  S
O896        H915   0.990       .  S
O896        H919   0.990       .  S
O897        H911   0.990       .  S
O897        H918   0.990       .  S
O898        C902   1.287       .  A
O899        C902   1.280       .  A
O900        H910   0.990       .  S
O901        H914   0.990       .  S
C902       C1737   1.474       .  S
Zr925       O926   2.438       .  S
Zr925       O927   2.428       .  S
Zr925       O928   2.416       .  S
Zr925       O931   2.420       .  S
Zr925       O933   2.380       .  S
Zr925       O934   2.378       .  S
Zr925       O935   2.402       .  S
Zr925       O936   2.398       .  S
O926        H982   0.990       .  S
O926        H990   0.990       .  S
O927        C947   1.285       .  A
O928        C949   1.281       .  A
O929       Zr939   2.454       .  S
O929        C948   1.288       .  A
O930       Zr938   2.426       .  S
O930        C949   1.283       .  A
O931        C948   1.282       .  A
O932       Zr940   2.431       .  S
O932        C947   1.281       .  A
O933       Zr938   2.388       .  S
O933       Zr940   2.368       .  S
O934       Zr939   2.384       .  S
O934       Zr940   2.379       .  S
O934        H969   0.977       .  S
O935       Zr938   2.395       .  S
O935       Zr955   2.393       .  S
O935        H972   0.968       .  S
O936       Zr939   2.380       .  S
O936       Zr955   2.400       .  S
Zr937       O962   2.441       .  S
Zr937       O956   2.438       .  S
Zr937       O964   2.446       .  S
Zr937       O952   2.443       .  S
Zr937       O943   2.394       .  S
Zr937       O944   2.414       .  S
Zr937       O945   2.379       .  S
Zr937       O946   2.389       .  S
Zr938       O957   2.436       .  S
Zr938       O950   2.434       .  S
Zr938       O951   2.420       .  S
Zr938       O944   2.402       .  S
Zr938       O945   2.396       .  S
Zr939       O941   2.435       .  S
Zr939       O963   2.438       .  S
Zr939       O965   2.417       .  S
Zr939       O943   2.396       .  S
Zr939       O946   2.399       .  S
Zr940       O966   2.437       .  S
Zr940       O967   2.438       .  S
Zr940       O942   2.438       .  S
Zr940       O943   2.384       .  S
Zr940       O944   2.403       .  S
O941        H978   0.990       .  S
O942        H973   0.989       .  S
O942        H987   0.990       .  S
O944        H970   0.970       .  S
O945       Zr955   2.377       .  S
O946       Zr955   2.388       .  S
O946        H971   0.966       .  S
C947       C1330   1.501       .  S
C948       C1545   1.489       .  S
C949       C1353   1.472       .  S
O950        H986   0.990       .  S
O951        C953   1.281       .  A
O952        C953   1.285       .  A
C953       C1513   1.480       .  S
O954       Zr955   2.438       .  S
O954        H983   0.990       .  S
Zr955       O958   2.439       .  S
Zr955       O959   2.439       .  S
Zr955       O960   2.415       .  S
O956        C961   1.283       .  A
O957        H974   0.990       .  S
O957        H989   0.990       .  S
O958        H975   0.990       .  S
O959        H979   0.990       .  S
O959        H988   0.990       .  S
O960        C961   1.280       .  A
C961       C1298   1.482       .  S
O962        H981   0.990       .  S
O962        H985   0.990       .  S
O963        H977   0.990       .  S
O963        H984   0.990       .  S
O964        C968   1.286       .  A
O965        C968   1.281       .  A
O966        H976   0.990       .  S
O967        H980   0.990       .  S
C968       C2354   1.469       .  S
Zr991       O992   2.440       .  S
Zr991       O993   2.430       .  S
Zr991       O994   2.427       .  S
Zr991       O997   2.428       .  S
Zr991       O999   2.380       .  S
Zr991      O1000   2.378       .  S
Zr991      O1001   2.400       .  S
Zr991      O1002   2.398       .  S
O992       H1048   0.990       .  S
O992       H1056   0.990       .  S
O993       C1013   1.284       .  A
O994       C1015   1.282       .  A
O995      Zr1005   2.434       .  S
O995       C1014   1.284       .  A
O996      Zr1004   2.422       .  S
O996       C1015   1.283       .  A
O997       C1014   1.285       .  A
O998      Zr1006   2.433       .  S
O998       C1013   1.282       .  A
O999      Zr1004   2.395       .  S
O999      Zr1006   2.371       .  S
O1000     Zr1005   2.393       .  S
O1000     Zr1006   2.380       .  S
O1000      H1035   0.966       .  S
O1001     Zr1004   2.401       .  S
O1001     Zr1021   2.398       .  S
O1001      H1038   0.966       .  S
O1002     Zr1005   2.384       .  S
O1002     Zr1021   2.391       .  S
Zr1003     O1028   2.443       .  S
Zr1003     O1022   2.430       .  S
Zr1003     O1030   2.436   1_565  S
Zr1003     O1018   2.436       .  S
Zr1003     O1009   2.393   1_565  S
Zr1003     O1010   2.406   1_565  S
Zr1003     O1011   2.372       .  S
Zr1003     O1012   2.388   1_565  S
Zr1004     O1023   2.435   1_545  S
Zr1004     O1016   2.435       .  S
Zr1004     O1017   2.445   1_545  S
Zr1004     O1010   2.393       .  S
Zr1004     O1011   2.384   1_545  S
Zr1005     O1007   2.435       .  S
Zr1005     O1029   2.439       .  S
Zr1005     O1031   2.419       .  S
Zr1005     O1009   2.390       .  S
Zr1005     O1012   2.395       .  S
Zr1006     O1032   2.436       .  S
Zr1006     O1033   2.436       .  S
Zr1006     O1008   2.436       .  S
Zr1006     O1009   2.381       .  S
Zr1006     O1010   2.410       .  S
O1007      H1044   0.990       .  S
O1008      H1039   0.990       .  S
O1008      H1053   0.990       .  S
O1010      H1036   0.966       .  S
O1011     Zr1021   2.374   1_565  S
O1012     Zr1021   2.386       .  S
O1012      H1037   0.966       .  S
C1013      C1458   1.503       .  S
C1014      C1257   1.483       .  S
C1015      C1362   1.475       .  S
O1016      H1052   0.990   1_545  S
O1017      C1019   1.287       .  A
O1018      C1019   1.283       .  A
C1019      C1225   1.494       .  S
O1020     Zr1021   2.441       .  S
O1020      H1049   0.990       .  S
Zr1021     O1024   2.437   1_545  S
Zr1021     O1025   2.440       .  S
Zr1021     O1026   2.421   1_545  S
O1022      C1027   1.285       .  A
O1023      H1040   0.990       .  S
O1023      H1055   0.990       .  S
O1024      H1041   0.989       .  S
O1025      H1045   0.990       .  S
O1025      H1054   0.990       .  S
O1026      C1027   1.280       .  A
C1027      C1490   1.493       .  S
O1028      H1047   0.990       .  S
O1028      H1051   0.990       .  S
O1029      H1043   0.990       .  S
O1029      H1050   0.990       .  S
O1030      C1034   1.284       .  A
O1031      C1034   1.281       .  A
O1032      H1042   0.990       .  S
O1033      H1046   0.990       .  S
C1034      C1673   1.475       .  S
Zr1057     O1058   2.434       .  S
Zr1057     O1059   2.428       .  S
Zr1057     O1060   2.432       .  S
Zr1057     O1063   2.415       .  S
Zr1057     O1065   2.379   1_655  S
Zr1057     O1066   2.385       .  S
Zr1057     O1067   2.405   1_655  S
Zr1057     O1068   2.403   1_655  S
O1058      H1114   0.990       .  S
O1058      H1122   0.990       .  S
O1059      C1079   1.282       .  A
O1060      C1081   1.284   1_655  A
O1061     Zr1071   2.437       .  S
O1061      C1080   1.284       .  A
O1062     Zr1070   2.441       .  S
O1062      C1081   1.287       .  A
O1063      C1080   1.280       .  A
O1064     Zr1072   2.427       .  S
O1064      C1079   1.284       .  A
O1065     Zr1070   2.385       .  S
O1065     Zr1072   2.365   1_455  S
O1066     Zr1071   2.390       .  S
O1066     Zr1072   2.385       .  S
O1066      H1101   0.967       .  S
O1067     Zr1070   2.391       .  S
O1067     Zr1087   2.407       .  S
O1067      H1104   0.966       .  S
O1068     Zr1071   2.380   1_455  S
O1068     Zr1087   2.396       .  S
Zr1069     O1094   2.439       .  S
Zr1069     O1088   2.446       .  S
Zr1069     O1096   2.466       .  S
Zr1069     O1084   2.450       .  S
Zr1069     O1075   2.394       .  S
Zr1069     O1076   2.414       .  S
Zr1069     O1077   2.381       .  S
Zr1069     O1078   2.390       .  S
Zr1070     O1089   2.434       .  S
Zr1070     O1082   2.436       .  S
Zr1070     O1083   2.427       .  S
Zr1070     O1076   2.403       .  S
Zr1070     O1077   2.388       .  S
Zr1071     O1073   2.436   1_655  S
Zr1071     O1095   2.440       .  S
Zr1071     O1097   2.419   1_655  S
Zr1071     O1075   2.386   1_655  S
Zr1071     O1078   2.396   1_655  S
Zr1072     O1098   2.437       .  S
Zr1072     O1099   2.434   1_655  S
Zr1072     O1074   2.438   1_655  S
Zr1072     O1075   2.382   1_655  S
Zr1072     O1076   2.399   1_655  S
O1073      H1110   0.990   1_455  S
O1074      H1105   0.990   1_455  S
O1074      H1119   0.990       .  S
O1076      H1102   0.966       .  S
O1077     Zr1087   2.372       .  S
O1078     Zr1087   2.392       .  S
O1078      H1103   0.965       .  S
C1079      C1266   1.484       .  S
C1080      C1394   1.476       .  S
C1081      C1202   1.483   1_455  S
O1082      H1118   0.990       .  S
O1083      C1085   1.284       .  A
O1084      C1085   1.286       .  A
C1085      C1417   1.488       .  S
O1086     Zr1087   2.440       .  S
O1086      H1115   0.990       .  S
Zr1087     O1090   2.436       .  S
Zr1087     O1091   2.440       .  S
Zr1087     O1092   2.427       .  S
O1088      C1093   1.286       .  A
O1089      H1106   0.990       .  S
O1089      H1121   0.990       .  S
O1090      H1107   0.990       .  S
O1091      H1111   0.990       .  S
O1091      H1120   0.990       .  S
O1092      C1093   1.283       .  A
C1093      C1234   1.490       .  S
O1094      H1113   0.990       .  S
O1094      H1117   0.990       .  S
O1095      H1109   0.990       .  S
O1095      H1116   0.990       .  S
O1096      C1100   1.290       .  A
O1097      C1100   1.281       .  A
O1098      H1108   0.990       .  S
O1099      H1112   0.990       .  S
C1100      C2066   1.480       .  S
Zr1123     O1124   2.439       .  S
Zr1123     O1125   2.428       .  S
Zr1123     O1126   2.438       .  S
Zr1123     O1129   2.430       .  S
Zr1123     O1131   2.379       .  S
Zr1123     O1132   2.382       .  S
Zr1123     O1133   2.404       .  S
Zr1123     O1134   2.405       .  S
O1124      H1180   0.990       .  S
O1124      H1188   0.990       .  S
O1125      C1145   1.283       .  A
O1126      C1147   1.286       .  A
O1127     Zr1137   2.429       .  S
O1127      C1146   1.283       .  A
O1128     Zr1136   2.432       .  S
O1128      C1147   1.283       .  A
O1129      C1146   1.283       .  A
O1130     Zr1138   2.420       .  S
O1130      C1145   1.280       .  A
O1131     Zr1136   2.390       .  S
O1131     Zr1138   2.374       .  S
O1132     Zr1137   2.388       .  S
O1132     Zr1138   2.379       .  S
O1132      H1167   0.966       .  S
O1133     Zr1136   2.397       .  S
O1133     Zr1153   2.400       .  S
O1133      H1170   0.966       .  S
O1134     Zr1137   2.385       .  S
O1134     Zr1153   2.398       .  S
Zr1135     O1160   2.441       .  S
Zr1135     O1154   2.445       .  S
Zr1135     O1162   2.452       .  S
Zr1135     O1150   2.442       .  S
Zr1135     O1141   2.393       .  S
Zr1135     O1142   2.415       .  S
Zr1135     O1143   2.381       .  S
Zr1135     O1144   2.387       .  S
Zr1136     O1155   2.436       .  S
Zr1136     O1148   2.434   1_655  S
Zr1136     O1149   2.419       .  S
Zr1136     O1142   2.404       .  S
Zr1136     O1143   2.395       .  S
Zr1137     O1139   2.435       .  S
Zr1137     O1161   2.439       .  S
Zr1137     O1163   2.416       .  S
Zr1137     O1141   2.386       .  S
Zr1137     O1144   2.395       .  S
Zr1138     O1164   2.435       .  S
Zr1138     O1165   2.435       .  S
Zr1138     O1140   2.437       .  S
Zr1138     O1141   2.383       .  S
Zr1138     O1142   2.397       .  S
O1139      H1176   0.990       .  S
O1140      H1171   0.990       .  S
O1140      H1185   0.990       .  S
O1142      H1168   0.966       .  S
O1143     Zr1153   2.375       .  S
O1144     Zr1153   2.388       .  S
O1144      H1169   0.966       .  S
C1145      C1609   1.482       .  S
C1146      C1321   1.475       .  S
C1147      C1193   1.497       .  S
O1148      H1184   0.990       .  S
O1149      C1151   1.282       .  A
O1150      C1151   1.284       .  A
C1151      C1289   1.476   1_655  S
O1152     Zr1153   2.436       .  S
O1152      H1181   0.990       .  S
Zr1153     O1156   2.436       .  S
Zr1153     O1157   2.439       .  S
Zr1153     O1158   2.427       .  S
O1154      C1159   1.286       .  A
O1155      H1172   0.990       .  S
O1155      H1187   0.990       .  S
O1156      H1173   0.990       .  S
O1157      H1177   0.990       .  S
O1157      H1186   0.989       .  S
O1158      C1159   1.281       .  A
C1159      C1577   1.494       .  S
O1160      H1179   0.990       .  S
O1160      H1183   0.989       .  S
O1161      H1175   0.990       .  S
O1161      H1182   0.990       .  S
O1162      C1166   1.287       .  A
O1163      C1166   1.281       .  A
O1164      H1174   0.990       .  S
O1165      H1178   0.990       .  S
C1166      C2738   1.473       .  S
C1189      C1190   1.398       .  A
C1189      C1194   1.408       .  A
C1189      H1199   1.083   1_655  S
C1190      C1195   1.483       .  S
C1190      C1191   1.413       .  A
C1191      C1192   1.406       .  A
C1191      C1196   1.520       .  S
C1192      C1193   1.410       .  A
C1192      H1197   1.082       .  S
C1193      C1194   1.428       .  A
C1194      C1198   1.520   1_655  S
C1195      C1200   1.414       .  A
C1195      C1204   1.400       .  A
C1196      F1212   1.382       .  S
C1196      F1213   1.382       .  S
C1196      F1214   1.384       .  S
C1198      F1209   1.385       .  S
C1198      F1210   1.382       .  S
C1198      F1211   1.383       .  S
C1200      C1201   1.408       .  A
C1200      C1205   1.519       .  S
C1201      C1202   1.406       .  A
C1201      H1206   1.083   1_655  S
C1202      C1203   1.419       .  A
C1203      C1204   1.405       .  A
C1203      C1207   1.516       .  S
C1204      H1208   1.083       .  S
C1205      F1218   1.384       .  S
C1205      F1219   1.382   1_655  S
C1205      F1220   1.382       .  S
C1207      F1215   1.383   1_655  S
C1207      F1216   1.379       .  S
C1207      F1217   1.385       .  S
C1221      C1222   1.401       .  A
C1221      C1226   1.411       .  A
C1221      H1231   1.083       .  S
C1222      C1227   1.492       .  S
C1222      C1223   1.417       .  A
C1223      C1224   1.410       .  A
C1223      C1228   1.519       .  S
C1224      C1225   1.406       .  A
C1224      H1229   1.083       .  S
C1225      C1226   1.425       .  A
C1226      C1230   1.520       .  S
C1227      C1232   1.415       .  A
C1227      C1236   1.404       .  A
C1228      F1244   1.382       .  S
C1228      F1245   1.382       .  S
C1228      F1246   1.384       .  S
C1230      F1241   1.385       .  S
C1230      F1242   1.382       .  S
C1230      F1243   1.382       .  S
C1232      C1233   1.408       .  A
C1232      C1237   1.520       .  S
C1233      C1234   1.407       .  A
C1233      H1238   1.083       .  S
C1234      C1235   1.419       .  A
C1235      C1236   1.412       .  A
C1235      C1239   1.517       .  S
C1236      H1240   1.083       .  S
C1237      F1250   1.385       .  S
C1237      F1251   1.383       .  S
C1237      F1252   1.382       .  S
C1239      F1247   1.383       .  S
C1239      F1248   1.383       .  S
C1239      F1249   1.385       .  S
C1253      C1254   1.400       .  A
C1253      C1258   1.406       .  A
C1253      H1263   1.083       .  S
C1254      C1259   1.480       .  S
C1254      C1255   1.413       .  A
C1255      C1256   1.405       .  A
C1255      C1260   1.519       .  S
C1256      C1257   1.406       .  A
C1256      H1261   1.083       .  S
C1257      C1258   1.421       .  A
C1258      C1262   1.519       .  S
C1259      C1264   1.414       .  A
C1259      C1268   1.401       .  A
C1260      F1276   1.382       .  S
C1260      F1277   1.382       .  S
C1260      F1278   1.384       .  S
C1262      F1273   1.382       .  S
C1262      F1274   1.385       .  S
C1262      F1275   1.383       .  S
C1264      C1265   1.403       .  A
C1264      C1269   1.521       .  S
C1265      C1266   1.406       .  A
C1265      H1270   1.083       .  S
C1266      C1267   1.422       .  A
C1267      C1268   1.409       .  A
C1267      C1271   1.519       .  S
C1268      H1272   1.083       .  S
C1269      F1282   1.384       .  S
C1269      F1283   1.382       .  S
C1269      F1284   1.382       .  S
C1271      F1279   1.384       .  S
C1271      F1280   1.383       .  S
C1271      F1281   1.382       .  S
C1285      C1286   1.402       .  A
C1285      C1290   1.405       .  A
C1285      H1295   1.083       .  S
C1286      C1291   1.483       .  S
C1286      C1287   1.416       .  A
C1287      C1288   1.406       .  A
C1287      C1292   1.520       .  S
C1288      C1289   1.404       .  A
C1288      H1293   1.083       .  S
C1289      C1290   1.417       .  A
C1290      C1294   1.519   1_455  S
C1291      C1296   1.416       .  A
C1291      C1300   1.402       .  A
C1292      F1308   1.382       .  S
C1292      F1309   1.383       .  S
C1292      F1310   1.385       .  S
C1294      F1305   1.385   1_655  S
C1294      F1306   1.380       .  S
C1294      F1307   1.384       .  S
C1296      C1297   1.404       .  A
C1296      C1301   1.521       .  S
C1297      C1298   1.404       .  A
C1297      H1302   1.083       .  S
C1298      C1299   1.419       .  A
C1299      C1300   1.408       .  A
C1299      C1303   1.517       .  S
C1300      H1304   1.083       .  S
C1301      F1314   1.384       .  S
C1301      F1315   1.382       .  S
C1301      F1316   1.382       .  S
C1303      F1311   1.381       .  S
C1303      F1312   1.384       .  S
C1303      F1313   1.385       .  S
C1317      C1318   1.402       .  A
C1317      C1322   1.407       .  A
C1317      H1327   1.083       .  S
C1318      C1323   1.481       .  S
C1318      C1319   1.415       .  A
C1319      C1320   1.405       .  A
C1319      C1324   1.520       .  S
C1320      C1321   1.403       .  A
C1320      H1325   1.083       .  S
C1321      C1322   1.417       .  A
C1322      C1326   1.518       .  S
C1323      C1328   1.410       .  A
C1323      C1332   1.397       .  A
C1324      F1340   1.382       .  S
C1324      F1341   1.382       .  S
C1324      F1342   1.385       .  S
C1326      F1337   1.382       .  S
C1326      F1338   1.385       .  S
C1326      F1339   1.382       .  S
C1328      C1329   1.406       .  A
C1328      C1333   1.520       .  S
C1329      C1330   1.412       .  A
C1329      H1334   1.078       .  S
C1330      C1331   1.430       .  A
C1331      C1332   1.407       .  A
C1331      C1335   1.521       .  S
C1332      H1336   1.083       .  S
C1333      F1346   1.384       .  S
C1333      F1347   1.382       .  S
C1333      F1348   1.383       .  S
C1335      F1343   1.385       .  S
C1335      F1344   1.383       .  S
C1335      F1345   1.382       .  S
C1349      C1350   1.400       .  A
C1349      C1354   1.402       .  A
C1349      H1359   1.083       .  S
C1350      C1355   1.477       .  S
C1350      C1351   1.415       .  A
C1351      C1352   1.405       .  A
C1351      C1356   1.519       .  S
C1352      C1353   1.403       .  A
C1352      H1357   1.083       .  S
C1353      C1354   1.418       .  A
C1354      C1358   1.518       .  S
C1355      C1360   1.414       .  A
C1355      C1364   1.400       .  A
C1356      F1372   1.382       .  S
C1356      F1373   1.381       .  S
C1356      F1374   1.384       .  S
C1358      F1369   1.384       .  S
C1358      F1370   1.381       .  S
C1358      F1371   1.384       .  S
C1360      C1361   1.404       .  A
C1360      C1365   1.520       .  S
C1361      C1362   1.405       .  A
C1361      H1366   1.083       .  S
C1362      C1363   1.419       .  A
C1363      C1364   1.404       .  A
C1363      C1367   1.521       .  S
C1364      H1368   1.083       .  S
C1365      F1378   1.385       .  S
C1365      F1379   1.382       .  S
C1365      F1380   1.382       .  S
C1367      F1375   1.382       .  S
C1367      F1376   1.384       .  S
C1367      F1377   1.385       .  S
C1381      C1382   1.399       .  A
C1381      C1386   1.405       .  A
C1381      H1391   1.083       .  S
C1382      C1387   1.481       .  S
C1382      C1383   1.413       .  A
C1383      C1384   1.405       .  A
C1383      C1388   1.519       .  S
C1384      C1385   1.408       .  A
C1384      H1389   1.083       .  S
C1385      C1386   1.425       .  A
C1386      C1390   1.520       .  S
C1387      C1392   1.415       .  A
C1387      C1396   1.402       .  A
C1388      F1404   1.382       .  S
C1388      F1405   1.382       .  S
C1388      F1406   1.385       .  S
C1390      F1401   1.383       .  S
C1390      F1402   1.385       .  S
C1390      F1403   1.383       .  S
C1392      C1393   1.404       .  A
C1392      C1397   1.520       .  S
C1393      C1394   1.404       .  A
C1393      H1398   1.083       .  S
C1394      C1395   1.418       .  A
C1395      C1396   1.406       .  A
C1395      C1399   1.520       .  S
C1396      H1400   1.083       .  S
C1397      F1410   1.385       .  S
C1397      F1411   1.382       .  S
C1397      F1412   1.382       .  S
C1399      F1407   1.385       .  S
C1399      F1408   1.383       .  S
C1399      F1409   1.383       .  S
C1413      C1414   1.401       .  A
C1413      C1418   1.409       .  A
C1413      H1423   1.083       .  S
C1414      C1419   1.488       .  S
C1414      C1415   1.417       .  A
C1415      C1416   1.409       .  A
C1415      C1420   1.520       .  S
C1416      C1417   1.406       .  A
C1416      H1421   1.083       .  S
C1417      C1418   1.421       .  A
C1418      C1422   1.518       .  S
C1419      C1424   1.415       .  A
C1419      C1428   1.402       .  A
C1420      F1436   1.382       .  S
C1420      F1437   1.382       .  S
C1420      F1438   1.385       .  S
C1422      F1433   1.384       .  S
C1422      F1434   1.381       .  S
C1422      F1435   1.382       .  S
C1424      C1425   1.406       .  A
C1424      C1429   1.520       .  S
C1425      C1426   1.407       .  A
C1425      H1430   1.083       .  S
C1426      C1427   1.423       .  A
C1427      C1428   1.411       .  A
C1427      C1431   1.520       .  S
C1428      H1432   1.083       .  S
C1429      F1442   1.385       .  S
C1429      F1443   1.382       .  S
C1429      F1444   1.381       .  S
C1431      F1439   1.383       .  S
C1431      F1440   1.383       .  S
C1431      F1441   1.385       .  S
C1445      C1446   1.402       .  A
C1445      C1450   1.406       .  A
C1445      H1455   1.083       .  S
C1446      C1451   1.484       .  S
C1446      C1447   1.418       .  A
C1447      C1448   1.409       .  A
C1447      C1452   1.521       .  S
C1448      C1449   1.402       .  A
C1448      H1453   1.083       .  S
C1449      C1450   1.414       .  A
C1450      C1454   1.517       .  S
C1451      C1456   1.411       .  A
C1451      C1460   1.398       .  A
C1452      F1468   1.382       .  S
C1452      F1469   1.382       .  S
C1452      F1470   1.384       .  S
C1454      F1465   1.385       .  S
C1454      F1466   1.381       .  S
C1454      F1467   1.383       .  S
C1456      C1457   1.407       .  A
C1456      C1461   1.520       .  S
C1457      C1458   1.414       .  A
C1457      H1462   1.082       .  S
C1458      C1459   1.430       .  A
C1459      C1460   1.408       .  A
C1459      C1463   1.522       .  S
C1460      H1464   1.083       .  S
C1461      F1474   1.384       .  S
C1461      F1475   1.382       .  S
C1461      F1476   1.381       .  S
C1463      F1471   1.383       .  S
C1463      F1472   1.382       .  S
C1463      F1473   1.385       .  S
C1477      C1478   1.400       .  A
C1477      C1482   1.404       .  A
C1477      H1487   1.083       .  S
C1478      C1483   1.483       .  S
C1478      C1479   1.416       .  A
C1479      C1480   1.410       .  A
C1479      C1484   1.520       .  S
C1480      C1481   1.406       .  A
C1480      H1485   1.083       .  S
C1481      C1482   1.416       .  A
C1482      C1486   1.516       .  S
C1483      C1488   1.413       .  A
C1483      C1492   1.398       .  A
C1484      F1500   1.382       .  S
C1484      F1501   1.382       .  S
C1484      F1502   1.385       .  S
C1486      F1497   1.385       .  S
C1486      F1498   1.381       .  S
C1486      F1499   1.383       .  S
C1488      C1489   1.407       .  A
C1488      C1493   1.520       .  S
C1489      C1490   1.409       .  A
C1489      H1494   1.082       .  S
C1490      C1491   1.427       .  A
C1491      C1492   1.406       .  A
C1491      C1495   1.521       .  S
C1492      H1496   1.083       .  S
C1493      F1506   1.384       .  S
C1493      F1507   1.382       .  S
C1493      F1508   1.381       .  S
C1495      F1503   1.383       .  S
C1495      F1504   1.384       .  S
C1495      F1505   1.385       .  S
C1509      C1510   1.401       .  A
C1509      C1514   1.404   1_565  A
C1509      H1519   1.084       .  S
C1510      C1515   1.483       .  S
C1510      C1511   1.417   1_565  A
C1511      C1512   1.407       .  A
C1511      C1516   1.519       .  S
C1512      C1513   1.404       .  A
C1512      H1517   1.083       .  S
C1513      C1514   1.418       .  A
C1514      C1518   1.517       .  S
C1515      C1520   1.416       .  A
C1515      C1524   1.402       .  A
C1516      F1532   1.381       .  S
C1516      F1533   1.381       .  S
C1516      F1534   1.385       .  S
C1518      F1529   1.385   1_545  S
C1518      F1530   1.381       .  S
C1518      F1531   1.383       .  S
C1520      C1521   1.407       .  A
C1520      C1525   1.519       .  S
C1521      C1522   1.404       .  A
C1521      H1526   1.083       .  S
C1522      C1523   1.418       .  A
C1523      C1524   1.406       .  A
C1523      C1527   1.518       .  S
C1524      H1528   1.083       .  S
C1525      F1538   1.385       .  S
C1525      F1539   1.382       .  S
C1525      F1540   1.382       .  S
C1527      F1535   1.380       .  S
C1527      F1536   1.384   1_455  S
C1527      F1537   1.385       .  S
C1541      C1542   1.401       .  A
C1541      C1546   1.410       .  A
C1541      H1551   1.083       .  S
C1542      C1547   1.488       .  S
C1542      C1543   1.416       .  A
C1543      C1544   1.407       .  A
C1543      C1548   1.519       .  S
C1544      C1545   1.405       .  A
C1544      H1549   1.083       .  S
C1545      C1546   1.424       .  A
C1546      C1550   1.519       .  S
C1547      C1552   1.415       .  A
C1547      C1556   1.399       .  A
C1548      F1564   1.382       .  S
C1548      F1565   1.383       .  S
C1548      F1566   1.384       .  S
C1550      F1561   1.385       .  S
C1550      F1562   1.383       .  S
C1550      F1563   1.383       .  S
C1552      C1553   1.409       .  A
C1552      C1557   1.517       .  S
C1553      C1554   1.405       .  A
C1553      H1558   1.083       .  S
C1554      C1555   1.426       .  A
C1555      C1556   1.407       .  A
C1555      C1559   1.521       .  S
C1556      H1560   1.083       .  S
C1557      F1570   1.384       .  S
C1557      F1571   1.382       .  S
C1557      F1572   1.382       .  S
C1559      F1567   1.384       .  S
C1559      F1568   1.383       .  S
C1559      F1569   1.385       .  S
C1573      C1574   1.398       .  A
C1573      C1578   1.406   1_565  A
C1573      H1583   1.083       .  S
C1574      C1579   1.485       .  S
C1574      C1575   1.414       .  A
C1575      C1576   1.410   1_565  A
C1575      C1580   1.520       .  S
C1576      C1577   1.409       .  A
C1576      H1581   1.083       .  S
C1577      C1578   1.426       .  A
C1578      C1582   1.519       .  S
C1579      C1584   1.416       .  A
C1579      C1588   1.402       .  A
C1580      F1596   1.382       .  S
C1580      F1597   1.382       .  S
C1580      F1598   1.384       .  S
C1582      F1593   1.385       .  S
C1582      F1594   1.382       .  S
C1582      F1595   1.383       .  S
C1584      C1585   1.406       .  A
C1584      C1589   1.518       .  S
C1585      C1586   1.402       .  A
C1585      H1590   1.084       .  S
C1586      C1587   1.417       .  A
C1587      C1588   1.406       .  A
C1587      C1591   1.517       .  S
C1588      H1592   1.083       .  S
C1589      F1602   1.385       .  S
C1589      F1603   1.382       .  S
C1589      F1604   1.382   1_565  S
C1591      F1599   1.380       .  S
C1591      F1600   1.384       .  S
C1591      F1601   1.384       .  S
C1605      C1606   1.399       .  A
C1605      C1610   1.405       .  A
C1605      H1615   1.083       .  S
C1606      C1611   1.480       .  S
C1606      C1607   1.413       .  A
C1607      C1608   1.405       .  A
C1607      C1612   1.519       .  S
C1608      C1609   1.406       .  A
C1608      H1613   1.083       .  S
C1609      C1610   1.423       .  A
C1610      C1614   1.522       .  S
C1611      C1616   1.413       .  A
C1611      C1620   1.401       .  A
C1612      F1628   1.382       .  S
C1612      F1629   1.383       .  S
C1612      F1630   1.384       .  S
C1614      F1625   1.385       .  S
C1614      F1626   1.383       .  S
C1614      F1627   1.383       .  S
C1616      C1617   1.403       .  A
C1616      C1621   1.521       .  S
C1617      C1618   1.407       .  A
C1617      H1622   1.083       .  S
C1618      C1619   1.422       .  A
C1619      C1620   1.407       .  A
C1619      C1623   1.521       .  S
C1620      H1624   1.083       .  S
C1621      F1634   1.385       .  S
C1621      F1635   1.382       .  S
C1621      F1636   1.382       .  S
C1623      F1631   1.385       .  S
C1623      F1632   1.383       .  S
C1623      F1633   1.382       .  S
C1637      C1638   1.401       .  A
C1637      C1642   1.408       .  A
C1637      H1647   1.083       .  S
C1638      C1643   1.488       .  S
C1638      C1639   1.414       .  A
C1639      C1640   1.406       .  A
C1639      C1644   1.518       .  S
C1640      C1641   1.408       .  A
C1640      H1645   1.083       .  S
C1641      C1642   1.421       .  A
C1642      C1646   1.515       .  S
C1643      C1648   1.415       .  A
C1643      C1652   1.401       .  A
C1644      F1660   1.382       .  S
C1644      F1661   1.381       .  S
C1644      F1662   1.386       .  S
C1646      F1657   1.380       .  S
C1646      F1658   1.385       .  S
C1646      F1659   1.383       .  S
C1648      C1649   1.409       .  A
C1648      C1653   1.520       .  S
C1649      C1650   1.408       .  A
C1649      H1654   1.083       .  S
C1650      C1651   1.423       .  A
C1651      C1652   1.411       .  A
C1651      C1655   1.519       .  S
C1652      H1656   1.083       .  S
C1653      F1666   1.384       .  S
C1653      F1667   1.382       .  S
C1653      F1668   1.383       .  S
C1655      F1663   1.385       .  S
C1655      F1664   1.383       .  S
C1655      F1665   1.382       .  S
C1669      C1670   1.400       .  A
C1669      C1674   1.405       .  A
C1669      H1679   1.083       .  S
C1670      C1675   1.475   1_556  S
C1670      C1671   1.414       .  A
C1671      C1672   1.401       .  A
C1671      C1676   1.522       .  S
C1672      C1673   1.405       .  A
C1672      H1677   1.083       .  S
C1673      C1674   1.417       .  A
C1674      C1678   1.516       .  S
C1675      C1680   1.407       .  A
C1675      C1684   1.397       .  A
C1676      F1692   1.382       .  S
C1676      F1693   1.383   1_556  S
C1676      F1694   1.385       .  S
C1678      F1689   1.385       .  S
C1678      F1690   1.382       .  S
C1678      F1691   1.384       .  S
C1680      C1681   1.398       .  A
C1680      C1685   1.521   1_545  S
C1681      C1682   1.416       .  A
C1681      H1686   1.081       .  S
C1682      C1683   1.429       .  A
C1683      C1684   1.407       .  A
C1683      C1687   1.516       .  S
C1684      H1688   1.083       .  S
C1685      F1698   1.385       .  S
C1685      F1699   1.381   1_565  S
C1685      F1700   1.383       .  S
C1687      F1695   1.385       .  S
C1687      F1696   1.382       .  S
C1687      F1697   1.381       .  S
C1701      C1702   1.399       .  A
C1701      C1706   1.409       .  A
C1701      H1711   1.083       .  S
C1702      C1707   1.484       .  S
C1702      C1703   1.413       .  A
C1703      C1704   1.406       .  A
C1703      C1708   1.522       .  S
C1704      C1705   1.413       .  A
C1704      H1709   1.082       .  S
C1705      C1706   1.428       .  A
C1706      C1710   1.520       .  S
C1707      C1712   1.418       .  A
C1707      C1716   1.402       .  A
C1708      F1724   1.382       .  S
C1708      F1725   1.382       .  S
C1708      F1726   1.384       .  S
C1710      F1721   1.385       .  S
C1710      F1722   1.382       .  S
C1710      F1723   1.383       .  S
C1712      C1713   1.409       .  A
C1712      C1717   1.520       .  S
C1713      C1714   1.403       .  A
C1713      H1718   1.084       .  S
C1714      C1715   1.412   1_565  A
C1715      C1716   1.404   1_545  A
C1715      C1719   1.516       .  S
C1716      H1720   1.083   1_565  S
C1717      F1730   1.385       .  S
C1717      F1731   1.382       .  S
C1717      F1732   1.382       .  S
C1719      F1727   1.381       .  S
C1719      F1728   1.383       .  S
C1719      F1729   1.384       .  S
C1733      C1734   1.399       .  A
C1733      C1738   1.401       .  A
C1733      H1743   1.083       .  S
C1734      C1739   1.480   1_556  S
C1734      C1735   1.416       .  A
C1735      C1736   1.409       .  A
C1735      C1740   1.519       .  S
C1736      C1737   1.405       .  A
C1736      H1741   1.083       .  S
C1737      C1738   1.417       .  A
C1738      C1742   1.518       .  S
C1739      C1744   1.414       .  A
C1739      C1748   1.394       .  A
C1740      F1756   1.382       .  S
C1740      F1757   1.382       .  S
C1740      F1758   1.385       .  S
C1742      F1753   1.383       .  S
C1742      F1754   1.385       .  S
C1742      F1755   1.379       .  S
C1744      C1745   1.408       .  A
C1744      C1749   1.518       .  S
C1745      C1746   1.409       .  A
C1745      H1750   1.083       .  S
C1746      C1747   1.430       .  A
C1747      C1748   1.404       .  A
C1747      C1751   1.518       .  S
C1748      H1752   1.083       .  S
C1749      F1762   1.385       .  S
C1749      F1763   1.382       .  S
C1749      F1764   1.382   1_554  S
C1751      F1759   1.385       .  S
C1751      F1760   1.383       .  S
C1751      F1761   1.382       .  S
C1765      C1766   1.398       .  A
C1765      C1770   1.406       .  A
C1765      H1775   1.083       .  S
C1766      C1771   1.481       .  S
C1766      C1767   1.412       .  A
C1767      C1768   1.407       .  A
C1767      C1772   1.520       .  S
C1768      C1769   1.411       .  A
C1768      H1773   1.083       .  S
C1769      C1770   1.425       .  A
C1770      C1774   1.519       .  S
C1771      C1776   1.415       .  A
C1771      C1780   1.401       .  A
C1772      F1788   1.383       .  S
C1772      F1789   1.383       .  S
C1772      F1790   1.385       .  S
C1774      F1785   1.382       .  S
C1774      F1786   1.385       .  S
C1774      F1787   1.383       .  S
C1776      C1777   1.404       .  A
C1776      C1781   1.522       .  S
C1777      C1778   1.405       .  A
C1777      H1782   1.083       .  S
C1778      C1779   1.421       .  A
C1779      C1780   1.408       .  A
C1779      C1783   1.521       .  S
C1780      H1784   1.083       .  S
C1781      F1794   1.384       .  S
C1781      F1795   1.382       .  S
C1781      F1796   1.383       .  S
C1783      F1791   1.384       .  S
C1783      F1792   1.382       .  S
C1783      F1793   1.385       .  S
C1797      C1798   1.404       .  A
C1797      C1802   1.409       .  A
C1797      H1807   1.083       .  S
C1798      C1803   1.483       .  S
C1798      C1799   1.415       .  A
C1799      C1800   1.401       .  A
C1799      C1804   1.520       .  S
C1800      C1801   1.404       .  A
C1800      H1805   1.083       .  S
C1801      C1802   1.419       .  A
C1802      C1806   1.520       .  S
C1803      C1808   1.417       .  A
C1803      C1812   1.399       .  A
C1804      F1820   1.382       .  S
C1804      F1821   1.382       .  S
C1804      F1822   1.385       .  S
C1806      F1817   1.384       .  S
C1806      F1818   1.383       .  S
C1806      F1819   1.384       .  S
C1808      C1809   1.408       .  A
C1808      C1813   1.519       .  S
C1809      C1810   1.404       .  A
C1809      H1814   1.083       .  S
C1810      C1811   1.421       .  A
C1811      C1812   1.404       .  A
C1811      C1815   1.520       .  S
C1812      H1816   1.083       .  S
C1813      F1826   1.385       .  S
C1813      F1827   1.382       .  S
C1813      F1828   1.383       .  S
C1815      F1823   1.381       .  S
C1815      F1824   1.383       .  S
C1815      F1825   1.385       .  S
C1829      C1830   1.402       .  A
C1829      C1834   1.414       .  A
C1829      H1839   1.083       .  S
C1830      C1835   1.496       .  S
C1830      C1831   1.414       .  A
C1831      C1832   1.413       .  A
C1831      C1836   1.520       .  S
C1832      C1833   1.413       .  A
C1832      H1837   1.083       .  S
C1833      C1834   1.427       .  A
C1834      C1838   1.520       .  S
C1835      C1840   1.415       .  A
C1835      C1844   1.405       .  A
C1836      F1852   1.382       .  S
C1836      F1853   1.383       .  S
C1836      F1854   1.384       .  S
C1838      F1849   1.383       .  S
C1838      F1850   1.385       .  S
C1838      F1851   1.383       .  S
C1840      C1841   1.407   1_655  A
C1840      C1845   1.520       .  S
C1841      C1842   1.409       .  A
C1841      H1846   1.083       .  S
C1842      C1843   1.422       .  A
C1843      C1844   1.414   1_455  A
C1843      C1847   1.518       .  S
C1844      H1848   1.083       .  S
C1845      F1858   1.385       .  S
C1845      F1859   1.382       .  S
C1845      F1860   1.382       .  S
C1847      F1855   1.384       .  S
C1847      F1856   1.382       .  S
C1847      F1857   1.383       .  S
C1861      C1862   1.401       .  A
C1861      C1866   1.408       .  A
C1861      H1871   1.083       .  S
C1862      C1867   1.490       .  S
C1862      C1863   1.415       .  A
C1863      C1864   1.411       .  A
C1863      C1868   1.519       .  S
C1864      C1865   1.409       .  A
C1864      H1869   1.083       .  S
C1865      C1866   1.423       .  A
C1866      C1870   1.516       .  S
C1867      C1872   1.416       .  A
C1867      C1876   1.405       .  A
C1868      F1884   1.382       .  S
C1868      F1885   1.382       .  S
C1868      F1886   1.384       .  S
C1870      F1881   1.385       .  S
C1870      F1882   1.381       .  S
C1870      F1883   1.383       .  S
C1872      C1873   1.405       .  A
C1872      C1877   1.520       .  S
C1873      C1874   1.405       .  A
C1873      H1878   1.083       .  S
C1874      C1875   1.418       .  A
C1875      C1876   1.411       .  A
C1875      C1879   1.518       .  S
C1876      H1880   1.083       .  S
C1877      F1890   1.385       .  S
C1877      F1891   1.381       .  S
C1877      F1892   1.382       .  S
C1879      F1887   1.381       .  S
C1879      F1888   1.384       .  S
C1879      F1889   1.385       .  S
C1893      C1894   1.400       .  A
C1893      C1898   1.412       .  A
C1893      H1903   1.083       .  S
C1894      C1899   1.491       .  S
C1894      C1895   1.415       .  A
C1895      C1896   1.409       .  A
C1895      C1900   1.520       .  S
C1896      C1897   1.409       .  A
C1896      H1901   1.083       .  S
C1897      C1898   1.427       .  A
C1898      C1902   1.519       .  S
C1899      C1904   1.416       .  A
C1899      C1908   1.400       .  A
C1900      F1916   1.382       .  S
C1900      F1917   1.383       .  S
C1900      F1918   1.384       .  S
C1902      F1913   1.383       .  S
C1902      F1914   1.385       .  S
C1902      F1915   1.384       .  S
C1904      C1905   1.410       .  A
C1904      C1909   1.518       .  S
C1905      C1906   1.407       .  A
C1905      H1910   1.083       .  S
C1906      C1907   1.421       .  A
C1907      C1908   1.408       .  A
C1907      C1911   1.514       .  S
C1908      H1912   1.083       .  S
C1909      F1922   1.385       .  S
C1909      F1923   1.382       .  S
C1909      F1924   1.382       .  S
C1911      F1919   1.385       .  S
C1911      F1920   1.384       .  S
C1911      F1921   1.380       .  S
C1925      C1926   1.399       .  A
C1925      C1930   1.409       .  A
C1925      H1935   1.083       .  S
C1926      C1931   1.486       .  S
C1926      C1927   1.415       .  A
C1927      C1928   1.408       .  A
C1927      C1932   1.520       .  S
C1928      C1929   1.407       .  A
C1928      H1933   1.083       .  S
C1929      C1930   1.425       .  A
C1930      C1934   1.517       .  S
C1931      C1936   1.414       .  A
C1931      C1940   1.402       .  A
C1932      F1948   1.382       .  S
C1932      F1949   1.382       .  S
C1932      F1950   1.384       .  S
C1934      F1945   1.382       .  S
C1934      F1946   1.385       .  S
C1934      F1947   1.380       .  S
C1936      C1937   1.408       .  A
C1936      C1941   1.519       .  S
C1937      C1938   1.407       .  A
C1937      H1942   1.083       .  S
C1938      C1939   1.421       .  A
C1939      C1940   1.408       .  A
C1939      C1943   1.518       .  S
C1940      H1944   1.083       .  S
C1941      F1954   1.384       .  S
C1941      F1955   1.382       .  S
C1941      F1956   1.382       .  S
C1943      F1951   1.384   1_545  S
C1943      F1952   1.382       .  S
C1943      F1953   1.385       .  S
C1957      C1958   1.400       .  A
C1957      C1962   1.408       .  A
C1957      H1967   1.083       .  S
C1958      C1963   1.491       .  S
C1958      C1959   1.416       .  A
C1959      C1960   1.411       .  A
C1959      C1964   1.519       .  S
C1960      C1961   1.409       .  A
C1960      H1965   1.083       .  S
C1961      C1962   1.425       .  A
C1962      C1966   1.519       .  S
C1963      C1968   1.416       .  A
C1963      C1972   1.403       .  A
C1964      F1980   1.382       .  S
C1964      F1981   1.382       .  S
C1964      F1982   1.385       .  S
C1966      F1977   1.385       .  S
C1966      F1978   1.382       .  S
C1966      F1979   1.383       .  S
C1968      C1969   1.408       .  A
C1968      C1973   1.519       .  S
C1969      C1970   1.404       .  A
C1969      H1974   1.083       .  S
C1970      C1971   1.421       .  A
C1971      C1972   1.410       .  A
C1971      C1975   1.519       .  S
C1972      H1976   1.083       .  S
C1973      F1986   1.385       .  S
C1973      F1987   1.382       .  S
C1973      F1988   1.382       .  S
C1975      F1983   1.382       .  S
C1975      F1984   1.383       .  S
C1975      F1985   1.385       .  S
C1989      C1990   1.404       .  A
C1989      C1994   1.414       .  A
C1989      H1999   1.083       .  S
C1990      C1995   1.490       .  S
C1990      C1991   1.416       .  A
C1991      C1992   1.407       .  A
C1991      C1996   1.522       .  S
C1992      C1993   1.406       .  A
C1992      H1997   1.083       .  S
C1993      C1994   1.421       .  A
C1994      C1998   1.519   1_545  S
C1995      C2000   1.413       .  A
C1995      C2004   1.400       .  A
C1996      F2012   1.383       .  S
C1996      F2013   1.382       .  S
C1996      F2014   1.384       .  S
C1998      F2009   1.384       .  S
C1998      F2010   1.383       .  S
C1998      F2011   1.382       .  S
C2000      C2001   1.410   1_655  A
C2000      C2005   1.519       .  S
C2001      C2002   1.410       .  A
C2001      H2006   1.083       .  S
C2002      C2003   1.425       .  A
C2003      C2004   1.410   1_455  A
C2003      C2007   1.518       .  S
C2004      H2008   1.083       .  S
C2005      F2018   1.384       .  S
C2005      F2019   1.383       .  S
C2005      F2020   1.382       .  S
C2007      F2015   1.384       .  S
C2007      F2016   1.381       .  S
C2007      F2017   1.385       .  S
C2021      C2022   1.402       .  A
C2021      C2026   1.408       .  A
C2021      H2031   1.083       .  S
C2022      C2027   1.492       .  S
C2022      C2023   1.418       .  A
C2023      C2024   1.412       .  A
C2023      C2028   1.519       .  S
C2024      C2025   1.405       .  A
C2024      H2029   1.083       .  S
C2025      C2026   1.418       .  A
C2026      C2030   1.515       .  S
C2027      C2032   1.414       .  A
C2027      C2036   1.399       .  A
C2028      F2044   1.382       .  S
C2028      F2045   1.382       .  S
C2028      F2046   1.385       .  S
C2030      F2041   1.385       .  S
C2030      F2042   1.379       .  S
C2030      F2043   1.383       .  S
C2032      C2033   1.413       .  A
C2032      C2037   1.520       .  S
C2033      C2034   1.414       .  A
C2033      H2038   1.082       .  S
C2034      C2035   1.428       .  A
C2035      C2036   1.409       .  A
C2035      C2039   1.519       .  S
C2036      H2040   1.083       .  S
C2037      F2050   1.384       .  S
C2037      F2051   1.382       .  S
C2037      F2052   1.382       .  S
C2039      F2047   1.383       .  S
C2039      F2048   1.383       .  S
C2039      F2049   1.385       .  S
C2053      C2054   1.406   1_655  A
C2053      C2058   1.414       .  A
C2053      H2063   1.083       .  S
C2054      C2059   1.494   1_554  S
C2054      C2055   1.416       .  A
C2055      C2056   1.408       .  A
C2055      C2060   1.521       .  S
C2056      C2057   1.408   1_455  A
C2056      H2061   1.083       .  S
C2057      C2058   1.416       .  A
C2058      C2062   1.515       .  S
C2059      C2064   1.417       .  A
C2059      C2068   1.407       .  A
C2060      F2076   1.382       .  S
C2060      F2077   1.383       .  S
C2060      F2078   1.384       .  S
C2062      F2073   1.380       .  S
C2062      F2074   1.384       .  S
C2062      F2075   1.383       .  S
C2064      C2065   1.408       .  A
C2064      C2069   1.520   1_455  S
C2065      C2066   1.404       .  A
C2065      H2070   1.084   1_455  S
C2066      C2067   1.413       .  A
C2067      C2068   1.412       .  A
C2067      C2071   1.515       .  S
C2068      H2072   1.083       .  S
C2069      F2082   1.385       .  S
C2069      F2083   1.382       .  S
C2069      F2084   1.382   1_556  S
C2071      F2079   1.383       .  S
C2071      F2080   1.383       .  S
C2071      F2081   1.384       .  S
C2085      C2086   1.400       .  A
C2085      C2090   1.405       .  A
C2085      H2095   1.083       .  S
C2086      C2091   1.476       .  S
C2086      C2087   1.413       .  A
C2087      C2088   1.401       .  A
C2087      C2092   1.521       .  S
C2088      C2089   1.407       .  A
C2088      H2093   1.083       .  S
C2089      C2090   1.420       .  A
C2090      C2094   1.519       .  S
C2091      C2096   1.413       .  A
C2091      C2100   1.398       .  A
C2092      F2108   1.382       .  S
C2092      F2109   1.382       .  S
C2092      F2110   1.385       .  S
C2094      F2105   1.382       .  S
C2094      F2106   1.384       .  S
C2094      F2107   1.383       .  S
C2096      C2097   1.405       .  A
C2096      C2101   1.521       .  S
C2097      C2098   1.406       .  A
C2097      H2102   1.083       .  S
C2098      C2099   1.422       .  A
C2099      C2100   1.404       .  A
C2099      C2103   1.519       .  S
C2100      H2104   1.084       .  S
C2101      F2114   1.384       .  S
C2101      F2115   1.382       .  S
C2101      F2116   1.382       .  S
C2103      F2111   1.385       .  S
C2103      F2112   1.383       .  S
C2103      F2113   1.382       .  S
C2117      C2118   1.404       .  A
C2117      C2122   1.413       .  A
C2117      H2127   1.083       .  S
C2118      C2123   1.496       .  S
C2118      C2119   1.417       .  A
C2119      C2120   1.409       .  A
C2119      C2124   1.520       .  S
C2120      C2121   1.406       .  A
C2120      H2125   1.083       .  S
C2121      C2122   1.421       .  A
C2122      C2126   1.519       .  S
C2123      C2128   1.417       .  A
C2123      C2132   1.403       .  A
C2124      F2140   1.382       .  S
C2124      F2141   1.382       .  S
C2124      F2142   1.385       .  S
C2126      F2137   1.384       .  S
C2126      F2138   1.384       .  S
C2126      F2139   1.382       .  S
C2128      C2129   1.411       .  A
C2128      C2133   1.519       .  S
C2129      C2130   1.407       .  A
C2129      H2134   1.083       .  S
C2130      C2131   1.422       .  A
C2131      C2132   1.412       .  A
C2131      C2135   1.520       .  S
C2132      H2136   1.083       .  S
C2133      F2146   1.384       .  S
C2133      F2147   1.382       .  S
C2133      F2148   1.383       .  S
C2135      F2143   1.385       .  S
C2135      F2144   1.382       .  S
C2135      F2145   1.384       .  S
C2149      C2150   1.398       .  A
C2149      C2154   1.405       .  A
C2149      H2159   1.083       .  S
C2150      C2155   1.481       .  S
C2150      C2151   1.412       .  A
C2151      C2152   1.406       .  A
C2151      C2156   1.519       .  S
C2152      C2153   1.410       .  A
C2152      H2157   1.083       .  S
C2153      C2154   1.425       .  A
C2154      C2158   1.520       .  S
C2155      C2160   1.415       .  A
C2155      C2164   1.402       .  A
C2156      F2172   1.382       .  S
C2156      F2173   1.382       .  S
C2156      F2174   1.385       .  S
C2158      F2169   1.383       .  S
C2158      F2170   1.385       .  S
C2158      F2171   1.383       .  S
C2160      C2161   1.403       .  A
C2160      C2165   1.521       .  S
C2161      C2162   1.402       .  A
C2161      H2166   1.083       .  S
C2162      C2163   1.420       .  A
C2163      C2164   1.408       .  A
C2163      C2167   1.520       .  S
C2164      H2168   1.083       .  S
C2165      F2178   1.384       .  S
C2165      F2179   1.382       .  S
C2165      F2180   1.382       .  S
C2167      F2175   1.385       .  S
C2167      F2176   1.383       .  S
C2167      F2177   1.382       .  S
C2181      C2182   1.403       .  A
C2181      C2186   1.411       .  A
C2181      H2191   1.083       .  S
C2182      C2187   1.488       .  S
C2182      C2183   1.416       .  A
C2183      C2184   1.408       .  A
C2183      C2188   1.521       .  S
C2184      C2185   1.404       .  A
C2184      H2189   1.083       .  S
C2185      C2186   1.421       .  A
C2186      C2190   1.521       .  S
C2187      C2192   1.414       .  A
C2187      C2196   1.402       .  A
C2188      F2204   1.382       .  S
C2188      F2205   1.382       .  S
C2188      F2206   1.384       .  S
C2190      F2201   1.385       .  S
C2190      F2202   1.382       .  S
C2190      F2203   1.384       .  S
C2192      C2193   1.407       .  A
C2192      C2197   1.520       .  S
C2193      C2194   1.407       .  A
C2193      H2198   1.083       .  S
C2194      C2195   1.424       .  A
C2195      C2196   1.411       .  A
C2195      C2199   1.520       .  S
C2196      H2200   1.083       .  S
C2197      F2210   1.384       .  S
C2197      F2211   1.382       .  S
C2197      F2212   1.381       .  S
C2199      F2207   1.383       .  S
C2199      F2208   1.383       .  S
C2199      F2209   1.384       .  S
C2213      C2214   1.400       .  A
C2213      C2218   1.411       .  A
C2213      H2223   1.083       .  S
C2214      C2219   1.491       .  S
C2214      C2215   1.415       .  A
C2215      C2216   1.409       .  A
C2215      C2220   1.520       .  S
C2216      C2217   1.409       .  A
C2216      H2221   1.083       .  S
C2217      C2218   1.428       .  A
C2218      C2222   1.519       .  S
C2219      C2224   1.416       .  A
C2219      C2228   1.401       .  A
C2220      F2236   1.382       .  S
C2220      F2237   1.382       .  S
C2220      F2238   1.384       .  S
C2222      F2233   1.383       .  S
C2222      F2234   1.385   1_455  S
C2222      F2235   1.383       .  S
C2224      C2225   1.410       .  A
C2224      C2229   1.517       .  S
C2225      C2226   1.405       .  A
C2225      H2230   1.083       .  S
C2226      C2227   1.420       .  A
C2227      C2228   1.408       .  A
C2227      C2231   1.515       .  S
C2228      H2232   1.084       .  S
C2229      F2242   1.385       .  S
C2229      F2243   1.382       .  S
C2229      F2244   1.382       .  S
C2231      F2239   1.385       .  S
C2231      F2240   1.384       .  S
C2231      F2241   1.380       .  S
C2245      C2246   1.406       .  A
C2245      C2250   1.409       .  A
C2245      H2255   1.083       .  S
C2246      C2251   1.482       .  S
C2246      C2247   1.416       .  A
C2247      C2248   1.401       .  A
C2247      C2252   1.520       .  S
C2248      C2249   1.400       .  A
C2248      H2253   1.084       .  S
C2249      C2250   1.410       .  A
C2250      C2254   1.515       .  S
C2251      C2256   1.414       .  A
C2251      C2260   1.405       .  A
C2252      F2268   1.382       .  S
C2252      F2269   1.382       .  S
C2252      F2270   1.385       .  S
C2254      F2265   1.382       .  S
C2254      F2266   1.384       .  S
C2254      F2267   1.384       .  S
C2256      C2257   1.404       .  A
C2256      C2261   1.521       .  S
C2257      C2258   1.405       .  A
C2257      H2262   1.084       .  S
C2258      C2259   1.412       .  A
C2259      C2260   1.410       .  A
C2259      C2263   1.515       .  S
C2260      H2264   1.083       .  S
C2261      F2274   1.385       .  S
C2261      F2275   1.383       .  S
C2261      F2276   1.383       .  S
C2263      F2271   1.384   1_655  S
C2263      F2272   1.384       .  S
C2263      F2273   1.382       .  S
C2277      C2278   1.400       .  A
C2277      C2282   1.406       .  A
C2277      H2287   1.083       .  S
C2278      C2283   1.489       .  S
C2278      C2279   1.418       .  A
C2279      C2280   1.409       .  A
C2279      C2284   1.519       .  S
C2280      C2281   1.407       .  A
C2280      H2285   1.083       .  S
C2281      C2282   1.421       .  A
C2282      C2286   1.516       .  S
C2283      C2288   1.413       .  A
C2283      C2292   1.401       .  A
C2284      F2300   1.382       .  S
C2284      F2301   1.383       .  S
C2284      F2302   1.385       .  S
C2286      F2297   1.384       .  S
C2286      F2298   1.385       .  S
C2286      F2299   1.381       .  S
C2288      C2289   1.408       .  A
C2288      C2293   1.519       .  S
C2289      C2290   1.411       .  A
C2289      H2294   1.083       .  S
C2290      C2291   1.425       .  A
C2291      C2292   1.409       .  A
C2291      C2295   1.516       .  S
C2292      H2296   1.083       .  S
C2293      F2306   1.384   1_565  S
C2293      F2307   1.382       .  S
C2293      F2308   1.383       .  S
C2295      F2303   1.382       .  S
C2295      F2304   1.383       .  S
C2295      F2305   1.385       .  S
C2309      C2310   1.401       .  A
C2309      C2314   1.414       .  A
C2309      H2319   1.083       .  S
C2310      C2315   1.493       .  S
C2310      C2311   1.413       .  A
C2311      C2312   1.408       .  A
C2311      C2316   1.520       .  S
C2312      C2313   1.412       .  A
C2312      H2317   1.078       .  S
C2313      C2314   1.431       .  A
C2314      C2318   1.520       .  S
C2315      C2320   1.419       .  A
C2315      C2324   1.404       .  A
C2316      F2332   1.382       .  S
C2316      F2333   1.382       .  S
C2316      F2334   1.384       .  S
C2318      F2329   1.385       .  S
C2318      F2330   1.383       .  S
C2318      F2331   1.383       .  S
C2320      C2321   1.411       .  A
C2320      C2325   1.519       .  S
C2321      C2322   1.403       .  A
C2321      H2326   1.083       .  S
C2322      C2323   1.414       .  A
C2323      C2324   1.409       .  A
C2323      C2327   1.516       .  S
C2324      H2328   1.083       .  S
C2325      F2338   1.385       .  S
C2325      F2339   1.382       .  S
C2325      F2340   1.382       .  S
C2327      F2335   1.384       .  S
C2327      F2336   1.382       .  S
C2327      F2337   1.383       .  S
C2341      C2342   1.404       .  A
C2341      C2346   1.408       .  A
C2341      H2351   1.083       .  S
C2342      C2347   1.479       .  S
C2342      C2343   1.414       .  A
C2343      C2344   1.402       .  A
C2343      C2348   1.522       .  S
C2344      C2345   1.404       .  A
C2344      H2349   1.084       .  S
C2345      C2346   1.413       .  A
C2346      C2350   1.516       .  S
C2347      C2352   1.415       .  A
C2347      C2356   1.405       .  A
C2348      F2364   1.382       .  S
C2348      F2365   1.382       .  S
C2348      F2366   1.385       .  S
C2350      F2361   1.382       .  S
C2350      F2362   1.385       .  S
C2350      F2363   1.383       .  S
C2352      C2353   1.401       .  A
C2352      C2357   1.521       .  S
C2353      C2354   1.401       .  A
C2353      H2358   1.084       .  S
C2354      C2355   1.412       .  A
C2355      C2356   1.408       .  A
C2355      C2359   1.514       .  S
C2356      H2360   1.083       .  S
C2357      F2370   1.385       .  S
C2357      F2371   1.382       .  S
C2357      F2372   1.382       .  S
C2359      F2367   1.383       .  S
C2359      F2368   1.381       .  S
C2359      F2369   1.385       .  S
C2373      C2374   1.400       .  A
C2373      C2378   1.406       .  A
C2373      H2383   1.084       .  S
C2374      C2379   1.481       .  S
C2374      C2375   1.413       .  A
C2375      C2376   1.407       .  A
C2375      C2380   1.519       .  S
C2376      C2377   1.406       .  A
C2376      H2381   1.083   1_455  S
C2377      C2378   1.422       .  A
C2378      C2382   1.521       .  S
C2379      C2384   1.415       .  A
C2379      C2388   1.402       .  A
C2380      F2396   1.382       .  S
C2380      F2397   1.382       .  S
C2380      F2398   1.384       .  S
C2382      F2393   1.382       .  S
C2382      F2394   1.385       .  S
C2382      F2395   1.384       .  S
C2384      C2385   1.403   1_565  A
C2384      C2389   1.521       .  S
C2385      C2386   1.405       .  A
C2385      H2390   1.083       .  S
C2386      C2387   1.420       .  A
C2387      C2388   1.409   1_545  A
C2387      C2391   1.519       .  S
C2388      H2392   1.083       .  S
C2389      F2402   1.385       .  S
C2389      F2403   1.382       .  S
C2389      F2404   1.381       .  S
C2391      F2399   1.385   1_545  S
C2391      F2400   1.383       .  S
C2391      F2401   1.381       .  S
C2405      C2406   1.405       .  A
C2405      C2410   1.410       .  A
C2405      H2415   1.083       .  S
C2406      C2411   1.493       .  S
C2406      C2407   1.419       .  A
C2407      C2408   1.410       .  A
C2407      C2412   1.519       .  S
C2408      C2409   1.403       .  A
C2408      H2413   1.084       .  S
C2409      C2410   1.415       .  A
C2410      C2414   1.517       .  S
C2411      C2416   1.416       .  A
C2411      C2420   1.399       .  A
C2412      F2428   1.382       .  S
C2412      F2429   1.382       .  S
C2412      F2430   1.385       .  S
C2414      F2425   1.384       .  S
C2414      F2426   1.381       .  S
C2414      F2427   1.384       .  S
C2416      C2417   1.414       .  A
C2416      C2421   1.519       .  S
C2417      C2418   1.411       .  A
C2417      H2422   1.083       .  S
C2418      C2419   1.426       .  A
C2419      C2420   1.407       .  A
C2419      C2423   1.519       .  S
C2420      H2424   1.083       .  S
C2421      F2434   1.385       .  S
C2421      F2435   1.382       .  S
C2421      F2436   1.382       .  S
C2423      F2431   1.382       .  S
C2423      F2432   1.382       .  S
C2423      F2433   1.385       .  S
C2437      C2438   1.400       .  A
C2437      C2442   1.406       .  A
C2437      H2447   1.083       .  S
C2438      C2443   1.485       .  S
C2438      C2439   1.416       .  A
C2439      C2440   1.406       .  A
C2439      C2444   1.520       .  S
C2440      C2441   1.407       .  A
C2440      H2445   1.082       .  S
C2441      C2442   1.423       .  A
C2442      C2446   1.518       .  S
C2443      C2448   1.411       .  A
C2443      C2452   1.402       .  A
C2444      F2460   1.382       .  S
C2444      F2461   1.383       .  S
C2444      F2462   1.385       .  S
C2446      F2457   1.384       .  S
C2446      F2458   1.385       .  S
C2446      F2459   1.381       .  S
C2448      C2449   1.404       .  A
C2448      C2453   1.521       .  S
C2449      C2450   1.411       .  A
C2449      H2454   1.083       .  S
C2450      C2451   1.423       .  A
C2451      C2452   1.411       .  A
C2451      C2455   1.516       .  S
C2452      H2456   1.083       .  S
C2453      F2466   1.384       .  S
C2453      F2467   1.382       .  S
C2453      F2468   1.383       .  S
C2455      F2463   1.382       .  S
C2455      F2464   1.383       .  S
C2455      F2465   1.385       .  S
C2469      C2470   1.403       .  A
C2469      C2474   1.411   1_655  A
C2469      H2479   1.083       .  S
C2470      C2475   1.488       .  S
C2470      C2471   1.416       .  A
C2471      C2472   1.406   1_655  A
C2471      C2476   1.520       .  S
C2472      C2473   1.404       .  A
C2472      H2477   1.083       .  S
C2473      C2474   1.421       .  A
C2474      C2478   1.520       .  S
C2475      C2480   1.415       .  A
C2475      C2484   1.399       .  A
C2476      F2492   1.382       .  S
C2476      F2493   1.382       .  S
C2476      F2494   1.385       .  S
C2478      F2489   1.385       .  S
C2478      F2490   1.384       .  S
C2478      F2491   1.383       .  S
C2480      C2481   1.411       .  A
C2480      C2485   1.519       .  S
C2481      C2482   1.410       .  A
C2481      H2486   1.083       .  S
C2482      C2483   1.424       .  A
C2483      C2484   1.407       .  A
C2483      C2487   1.520       .  S
C2484      H2488   1.083       .  S
C2485      F2498   1.385       .  S
C2485      F2499   1.383       .  S
C2485      F2500   1.383       .  S
C2487      F2495   1.383       .  S
C2487      F2496   1.383       .  S
C2487      F2497   1.385       .  S
C2501      C2502   1.403       .  A
C2501      C2506   1.412       .  A
C2501      H2511   1.083       .  S
C2502      C2507   1.491       .  S
C2502      C2503   1.416       .  A
C2503      C2504   1.407       .  A
C2503      C2508   1.520       .  S
C2504      C2505   1.406       .  A
C2504      H2509   1.083       .  S
C2505      C2506   1.421       .  A
C2506      C2510   1.518       .  S
C2507      C2512   1.417       .  A
C2507      C2516   1.403       .  A
C2508      F2524   1.382       .  S
C2508      F2525   1.382       .  S
C2508      F2526   1.385       .  S
C2510      F2521   1.385       .  S
C2510      F2522   1.382       .  S
C2510      F2523   1.384       .  S
C2512      C2513   1.408       .  A
C2512      C2517   1.519       .  S
C2513      C2514   1.404       .  A
C2513      H2518   1.083       .  S
C2514      C2515   1.419       .  A
C2515      C2516   1.410       .  A
C2515      C2519   1.519       .  S
C2516      H2520   1.083       .  S
C2517      F2530   1.385       .  S
C2517      F2531   1.382       .  S
C2517      F2532   1.382       .  S
C2519      F2527   1.382       .  S
C2519      F2528   1.383       .  S
C2519      F2529   1.385       .  S
C2533      C2534   1.401       .  A
C2533      C2538   1.409   1_545  A
C2533      H2543   1.083       .  S
C2534      C2539   1.484       .  S
C2534      C2535   1.414   1_545  A
C2535      C2536   1.405       .  A
C2535      C2540   1.521       .  S
C2536      C2537   1.409       .  A
C2536      H2541   1.083       .  S
C2537      C2538   1.422       .  A
C2538      C2542   1.517       .  S
C2539      C2544   1.413       .  A
C2539      C2548   1.399       .  A
C2540      F2556   1.382   1_565  S
C2540      F2557   1.382       .  S
C2540      F2558   1.384       .  S
C2542      F2553   1.382       .  S
C2542      F2554   1.385   1_565  S
C2542      F2555   1.384       .  S
C2544      C2545   1.408       .  A
C2544      C2549   1.520       .  S
C2545      C2546   1.409       .  A
C2545      H2550   1.083       .  S
C2546      C2547   1.421       .  A
C2547      C2548   1.406       .  A
C2547      C2551   1.515       .  S
C2548      H2552   1.083       .  S
C2549      F2562   1.384       .  S
C2549      F2563   1.382       .  S
C2549      F2564   1.382   1_545  S
C2551      F2559   1.384       .  S
C2551      F2560   1.384       .  S
C2551      F2561   1.380       .  S
C2565      C2566   1.403       .  A
C2565      C2570   1.410       .  A
C2565      H2575   1.083       .  S
C2566      C2571   1.487       .  S
C2566      C2567   1.417       .  A
C2567      C2568   1.409       .  A
C2567      C2572   1.521       .  S
C2568      C2569   1.403       .  A
C2568      H2573   1.083       .  S
C2569      C2570   1.416       .  A
C2570      C2574   1.516       .  S
C2571      C2576   1.413       .  A
C2571      C2580   1.404       .  A
C2572      F2588   1.382       .  S
C2572      F2589   1.382       .  S
C2572      F2590   1.385       .  S
C2574      F2585   1.383       .  S
C2574      F2586   1.384       .  S
C2574      F2587   1.382       .  S
C2576      C2577   1.405       .  A
C2576      C2581   1.520       .  S
C2577      C2578   1.408       .  A
C2577      H2582   1.082       .  S
C2578      C2579   1.421       .  A
C2579      C2580   1.411       .  A
C2579      C2583   1.519       .  S
C2580      H2584   1.083       .  S
C2581      F2594   1.385       .  S
C2581      F2595   1.382       .  S
C2581      F2596   1.381       .  S
C2583      F2591   1.384       .  S
C2583      F2592   1.382       .  S
C2583      F2593   1.384       .  S
C2597      C2598   1.398       .  A
C2597      C2602   1.407       .  A
C2597      H2607   1.083       .  S
C2598      C2603   1.483       .  S
C2598      C2599   1.413       .  A
C2599      C2600   1.408       .  A
C2599      C2604   1.520       .  S
C2600      C2601   1.410       .  A
C2600      H2605   1.083       .  S
C2601      C2602   1.426       .  A
C2602      C2606   1.519       .  S
C2603      C2608   1.415       .  A
C2603      C2612   1.404       .  A
C2604      F2620   1.383       .  S
C2604      F2621   1.383       .  S
C2604      F2622   1.385       .  S
C2606      F2617   1.382       .  S
C2606      F2618   1.385       .  S
C2606      F2619   1.383       .  S
C2608      C2609   1.403       .  A
C2608      C2613   1.520       .  S
C2609      C2610   1.403       .  A
C2609      H2614   1.084       .  S
C2610      C2611   1.416       .  A
C2611      C2612   1.409       .  A
C2611      C2615   1.518       .  S
C2612      H2616   1.083       .  S
C2613      F2626   1.385       .  S
C2613      F2627   1.382       .  S
C2613      F2628   1.382       .  S
C2615      F2623   1.385       .  S
C2615      F2624   1.384       .  S
C2615      F2625   1.382       .  S
C2629      C2630   1.400       .  A
C2629      C2634   1.408       .  A
C2629      H2639   1.083       .  S
C2630      C2635   1.485       .  S
C2630      C2631   1.417       .  A
C2631      C2632   1.407       .  A
C2631      C2636   1.519       .  S
C2632      C2633   1.404       .  A
C2632      H2637   1.083       .  S
C2633      C2634   1.421       .  A
C2634      C2638   1.519       .  S
C2635      C2640   1.414       .  A
C2635      C2644   1.402       .  A
C2636      F2652   1.382       .  S
C2636      F2653   1.383       .  S
C2636      F2654   1.384       .  S
C2638      F2649   1.385       .  S
C2638      F2650   1.381       .  S
C2638      F2651   1.383       .  S
C2640      C2641   1.403       .  A
C2640      C2645   1.519       .  S
C2641      C2642   1.406       .  A
C2641      H2646   1.083       .  S
C2642      C2643   1.421       .  A
C2643      C2644   1.410       .  A
C2643      C2647   1.518       .  S
C2644      H2648   1.083       .  S
C2645      F2658   1.385       .  S
C2645      F2659   1.382       .  S
C2645      F2660   1.382       .  S
C2647      F2655   1.382       .  S
C2647      F2656   1.383       .  S
C2647      F2657   1.385       .  S
C2661      C2662   1.402       .  A
C2661      C2666   1.410       .  A
C2661      H2671   1.083       .  S
C2662      C2667   1.489       .  S
C2662      C2663   1.416       .  A
C2663      C2664   1.407       .  A
C2663      C2668   1.519       .  S
C2664      C2665   1.404       .  A
C2664      H2669   1.083       .  S
C2665      C2666   1.422       .  A
C2666      C2670   1.520       .  S
C2667      C2672   1.415       .  A
C2667      C2676   1.404       .  A
C2668      F2684   1.382       .  S
C2668      F2685   1.382       .  S
C2668      F2686   1.385       .  S
C2670      F2681   1.385       .  S
C2670      F2682   1.382       .  S
C2670      F2683   1.383       .  S
C2672      C2673   1.406       .  A
C2672      C2677   1.520       .  S
C2673      C2674   1.406       .  A
C2673      H2678   1.083       .  S
C2674      C2675   1.419       .  A
C2675      C2676   1.412       .  A
C2675      C2679   1.518       .  S
C2676      H2680   1.083       .  S
C2677      F2690   1.384       .  S
C2677      F2691   1.382       .  S
C2677      F2692   1.382       .  S
C2679      F2687   1.382       .  S
C2679      F2688   1.383       .  S
C2679      F2689   1.385       .  S
C2693      C2694   1.399       .  A
C2693      C2698   1.408       .  A
C2693      H2703   1.084       .  S
C2694      C2699   1.488       .  S
C2694      C2695   1.414       .  A
C2695      C2696   1.410       .  A
C2695      C2700   1.518       .  S
C2696      C2697   1.410       .  A
C2696      H2701   1.082   1_545  S
C2697      C2698   1.429       .  A
C2698      C2702   1.521       .  S
C2699      C2704   1.419       .  A
C2699      C2708   1.405       .  A
C2700      F2716   1.382       .  S
C2700      F2717   1.382       .  S
C2700      F2718   1.385       .  S
C2702      F2713   1.385       .  S
C2702      F2714   1.383       .  S
C2702      F2715   1.382       .  S
C2704      C2705   1.405   1_655  A
C2704      C2709   1.519       .  S
C2705      C2706   1.398       .  A
C2705      H2710   1.083       .  S
C2706      C2707   1.414       .  A
C2707      C2708   1.410   1_455  A
C2707      C2711   1.517       .  S
C2708      H2712   1.083       .  S
C2709      F2722   1.385   1_655  S
C2709      F2723   1.381       .  S
C2709      F2724   1.381       .  S
C2711      F2719   1.384       .  S
C2711      F2720   1.381       .  S
C2711      F2721   1.383   1_455  S
C2725      C2726   1.404       .  A
C2725      C2730   1.410       .  A
C2725      H2735   1.083       .  S
C2726      C2731   1.486       .  S
C2726      C2727   1.415       .  A
C2727      C2728   1.404       .  A
C2727      C2732   1.519       .  S
C2728      C2729   1.403       .  A
C2728      H2733   1.084       .  S
C2729      C2730   1.416       .  A
C2730      C2734   1.515       .  S
C2731      C2736   1.416       .  A
C2731      C2740   1.405       .  A
C2732      F2748   1.382       .  S
C2732      F2749   1.382       .  S
C2732      F2750   1.385       .  S
C2734      F2745   1.380       .  S
C2734      F2746   1.385       .  S
C2734      F2747   1.383       .  S
C2736      C2737   1.406       .  A
C2736      C2741   1.520       .  S
C2737      C2738   1.402       .  A
C2737      H2742   1.084       .  S
C2738      C2739   1.413       .  A
C2739      C2740   1.409       .  A
C2739      C2743   1.516       .  S
C2740      H2744   1.083       .  S
C2741      F2754   1.384       .  S
C2741      F2755   1.382       .  S
C2741      F2756   1.383       .  S
C2743      F2751   1.384       .  S
C2743      F2752   1.384       .  S
C2743      F2753   1.383       .  S
C2757      C2758   1.405       .  A
C2757      C2762   1.412       .  A
C2757      H2767   1.083       .  S
C2758      C2763   1.486       .  S
C2758      C2759   1.414       .  A
C2759      C2760   1.404       .  A
C2759      C2764   1.521       .  S
C2760      C2761   1.405       .  A
C2760      H2765   1.083       .  S
C2761      C2762   1.420       .  A
C2762      C2766   1.518       .  S
C2763      C2768   1.415       .  A
C2763      C2772   1.403       .  A
C2764      F2780   1.382       .  S
C2764      F2781   1.382       .  S
C2764      F2782   1.384       .  S
C2766      F2777   1.385       .  S
C2766      F2778   1.382       .  S
C2766      F2779   1.384       .  S
C2768      C2769   1.407       .  A
C2768      C2773   1.519       .  S
C2769      C2770   1.403       .  A
C2769      H2774   1.083       .  S
C2770      C2771   1.420       .  A
C2771      C2772   1.409       .  A
C2771      C2775   1.521       .  S
C2772      H2776   1.083       .  S
C2773      F2786   1.384       .  S
C2773      F2787   1.382       .  S
C2773      F2788   1.382       .  S
C2775      F2783   1.381       .  S
C2775      F2784   1.384       .  S
C2775      F2785   1.385       .  S
C2789      C2790   1.401       .  A
C2789      C2794   1.409       .  A
C2789      H2799   1.083       .  S
C2790      C2795   1.484       .  S
C2790      C2791   1.416       .  A
C2791      C2792   1.406       .  A
C2791      C2796   1.520       .  S
C2792      C2793   1.404       .  A
C2792      H2797   1.083       .  S
C2793      C2794   1.421       .  A
C2794      C2798   1.516       .  S
C2795      C2800   1.414       .  A
C2795      C2804   1.398       .  A
C2796      F2812   1.382       .  S
C2796      F2813   1.382       .  S
C2796      F2814   1.384       .  S
C2798      F2809   1.381       .  S
C2798      F2810   1.385       .  S
C2798      F2811   1.384       .  S
C2800      C2801   1.411   1_565  A
C2800      C2805   1.520       .  S
C2801      C2802   1.410       .  A
C2801      H2806   1.083       .  S
C2802      C2803   1.424   1_545  A
C2803      C2804   1.405       .  A
C2803      C2807   1.520       .  S
C2804      H2808   1.083       .  S
C2805      F2818   1.384   1_565  S
C2805      F2819   1.383       .  S
C2805      F2820   1.382       .  S
C2807      F2815   1.384       .  S
C2807      F2816   1.384   1_565  S
C2807      F2817   1.382   1_565  S
C2821      C2822   1.401       .  A
C2821      C2826   1.405       .  A
C2821      H2831   1.083       .  S
C2822      C2827   1.484       .  S
C2822      C2823   1.416       .  A
C2823      C2824   1.408       .  A
C2823      C2828   1.519       .  S
C2824      C2825   1.403       .  A
C2824      H2829   1.083       .  S
C2825      C2826   1.418       .  A
C2826      C2830   1.518       .  S
C2827      C2832   1.414       .  A
C2827      C2836   1.402       .  A
C2828      F2844   1.382       .  S
C2828      F2845   1.382       .  S
C2828      F2846   1.385       .  S
C2830      F2841   1.384       .  S
C2830      F2842   1.382       .  S
C2830      F2843   1.382       .  S
C2832      C2833   1.404       .  A
C2832      C2837   1.521       .  S
C2833      C2834   1.406       .  A
C2833      H2838   1.083       .  S
C2834      C2835   1.421       .  A
C2835      C2836   1.410       .  A
C2835      C2839   1.516       .  S
C2836      H2840   1.083       .  S
C2837      F2850   1.384       .  S
C2837      F2851   1.382       .  S
C2837      F2852   1.382       .  S
C2839      F2847   1.382       .  S
C2839      F2848   1.383       .  S
C2839      F2849   1.385       .  S
C2853      C2854   1.403       .  A
C2853      C2858   1.410       .  A
C2853      H2863   1.083       .  S
C2854      C2859   1.484       .  S
C2854      C2855   1.416       .  A
C2855      C2856   1.403       .  A
C2855      C2860   1.520       .  S
C2856      C2857   1.403       .  A
C2856      H2861   1.083       .  S
C2857      C2858   1.419       .  A
C2858      C2862   1.520       .  S
C2859      C2864   1.415       .  A
C2859      C2868   1.398       .  A
C2860      F2876   1.382       .  S
C2860      F2877   1.381       .  S
C2860      F2878   1.385       .  S
C2862      F2873   1.381   1_455  S
C2862      F2874   1.385       .  S
C2862      F2875   1.383       .  S
C2864      C2865   1.409       .  A
C2864      C2869   1.519       .  S
C2865      C2866   1.407       .  A
C2865      H2870   1.083       .  S
C2866      C2867   1.423       .  A
C2867      C2868   1.405       .  A
C2867      C2871   1.519       .  S
C2868      H2872   1.084       .  S
C2869      F2882   1.385       .  S
C2869      F2883   1.382       .  S
C2869      F2884   1.382       .  S
C2871      F2879   1.385       .  S
C2871      F2880   1.383       .  S
C2871      F2881   1.382       .  S
C2885      C2886   1.402       .  A
C2885      C2890   1.410   1_455  A
C2885      H2895   1.083       .  S
C2886      C2891   1.490       .  S
C2886      C2887   1.416   1_455  A
C2887      C2888   1.408       .  A
C2887      C2892   1.520       .  S
C2888      C2889   1.408       .  A
C2888      H2893   1.083       .  S
C2889      C2890   1.421       .  A
C2890      C2894   1.518   1_655  S
C2891      C2896   1.415       .  A
C2891      C2900   1.399       .  A
C2892      F2908   1.382       .  S
C2892      F2909   1.381       .  S
C2892      F2910   1.384       .  S
C2894      F2905   1.381   1_455  S
C2894      F2906   1.384       .  S
C2894      F2907   1.384       .  S
C2896      C2897   1.412       .  A
C2896      C2901   1.520   1_455  S
C2897      C2898   1.410       .  A
C2897      H2902   1.083       .  S
C2898      C2899   1.424       .  A
C2899      C2900   1.409       .  A
C2899      C2903   1.516       .  S
C2900      H2904   1.083       .  S
C2901      F2914   1.384       .  S
C2901      F2915   1.382   1_655  S
C2901      F2916   1.383       .  S
C2903      F2911   1.384       .  S
C2903      F2912   1.383       .  S
C2903      F2913   1.381       .  S
