geometry optimzed in LAMMPS
_audit_creation_date              2020-12-01 
_audit_creation_method            'lammps2cif' 
_symmetry_space_group_name_H-M    'P1' 
_symmetry_Int_Tables_number       1 
_symmetry_cell_setting            triclinic 
loop_ 
_symmetry_equiv_pos_as_xyz 
  x,y,z 
_cell_length_a                    69.74784167 
_cell_length_b                    69.57421051697936 
_cell_length_c                    43.68344181167358 
_cell_angle_alpha                 89.85327602473922 
_cell_angle_beta                  90.08349946468923 
_cell_angle_gamma                 120.22355570111154 
loop_ 
_atom_site_label 
_atom_site_type_symbol 
_atom_site_fract_x 
_atom_site_fract_y 
_atom_site_fract_z 
_atom_site_charge 
O1          O  0.83348175  0.28140785  0.19486457    -0.80200
O2          O  0.84007911  0.23692423  0.31201684    -0.64900
O3          O  0.83252267  0.27580337  0.25854061    -1.11500
C4          C  0.91019534  0.31869955  0.26891380     1.06600
O5          O  0.85811275  0.26521870  0.34327191    -0.78100
O6          O  0.86858836  0.30651969  0.32617340    -0.65700
Ni7        Ni  0.81175022  0.26388018  0.22567832     1.34900
C8          C  0.86530592  0.31895579  0.30828640     0.85400
O9          O  0.80422749  0.23548442  0.28940054    -0.78700
O10         O  0.78783705  0.24533154  0.25364688    -0.89000
C11         C  0.84885556  0.24449646  0.33781404     0.85000
O12         O  0.81585363  0.23953536  0.21498748    -0.67200
O13         O  0.90561254  0.31182285  0.29656976    -0.86400
C14         C  0.82736602  0.23178548  0.22631632     0.85800
C15         C  0.78698763  0.23395783  0.27718191     1.07400
H16         H  0.87318513  0.26834480  0.27179962     0.39200
O17         O  0.86608600  0.27572679  0.28117359    -1.09100
O18         O  0.86461534  0.31664060  0.27924382    -0.65800
Ni19       Ni  0.86394934  0.29445041  0.25145705     1.26300
O20         O  0.83702484  0.23794143  0.25214483    -0.66000
O21         O  0.89574878  0.31212591  0.24737067    -0.78300
C22         C  0.84991572  0.30124017  0.19428405     0.85200
O23         O  0.86058726  0.31089604  0.21853107    -0.65500
Ni24       Ni  0.88111586  0.28824798  0.31843578     1.27400
Ni25       Ni  0.83528556  0.25547241  0.28493500     1.26100
H26         H  0.82760713  0.28390687  0.27109597     0.39700
O27         O  0.93922375  0.17753158  0.64494645    -0.80200
O28         O  0.90028041  0.18123225  0.52195975    -0.64900
O29         O  0.93658667  0.17482113  0.58106663    -1.11500
C30         C  0.98178377  0.25221822  0.56713631     1.06600
O31         O  0.92924073  0.19980690  0.49175152    -0.78100
O32         O  0.96857201  0.20665287  0.51381049    -0.65700
Ni33       Ni  0.92312911  0.15491976  0.61470450     1.34900
C34         C  0.98093319  0.20490863  0.53364224     0.85400
O35         O  0.89806652  0.14551203  0.54747938    -0.78700
O36         O  0.90575828  0.13023263  0.58746399    -0.89000
C37         C  0.90842581  0.19032328  0.49649297     0.85000
O38         O  0.89862062  0.15938622  0.62146396    -0.67200
O39         O  0.97662551  0.24636534  0.53921229    -0.86400
C40         C  0.89154223  0.17076253  0.60792006     0.85800
C41         C  0.89595986  0.12872106  0.56212449     1.07400
H42         H  0.93022318  0.21557212  0.56189829     0.39200
O43         O  0.93784266  0.20810181  0.55457299    -1.09100
O44         O  0.97828727  0.20631582  0.56228314    -0.65800
Ni45       Ni  0.95518457  0.20650100  0.58701241     1.26300
O46         O  0.89848868  0.17944712  0.58161333    -0.66000
O47         O  0.97318037  0.23857744  0.58964307    -0.78300
C48         C  0.95938039  0.19311905  0.64632433     0.85200
O49         O  0.97002538  0.20356757  0.62238787    -0.65500
Ni50       Ni  0.95249481  0.22203620  0.51740582     1.27400
Ni51       Ni  0.91760174  0.17699236  0.55160485     1.26100
H52         H  0.94508084  0.16946659  0.57035042     0.39700
O53         O  0.88949163  0.39164649  0.98032951    -0.80200
O54         O  0.93721935  0.43023134  0.86008312    -0.64900
O55         O  0.89167133  0.39344827  0.91637040    -1.11500
C56         C  0.92422004  0.34871241  0.90813566     1.06600
O57         O  0.92596247  0.40077359  0.83063413    -0.78100
O58         O  0.89317629  0.36127799  0.85156636    -0.65700
Ni59       Ni  0.88311150  0.40635253  0.94782545     1.34900
C60         C  0.87818628  0.34909152  0.87060182     0.85400
O61         O  0.90336590  0.43313849  0.88355286    -0.78700
O62         O  0.87597743  0.42217732  0.91785439    -0.89000
C63         C  0.93793577  0.42166322  0.83480571     0.85000
O64         O  0.91127669  0.43219102  0.95526609    -0.67200
O65         O  0.92431108  0.35383872  0.87994895    -0.86400
C66         C  0.93070247  0.43879639  0.94523331     0.85800
C67         C  0.88688054  0.43386947  0.89478106     1.07400
H68         H  0.93924508  0.39970938  0.90149158     0.39200
O69         O  0.92435402  0.39221732  0.89327492    -1.09100
O70         O  0.88140436  0.35154436  0.89949809    -0.65800
Ni71       Ni  0.90436393  0.37495810  0.92487807     1.26300
O72         O  0.93425878  0.43095866  0.92091208    -0.66000
O73         O  0.91826150  0.35703643  0.92982508    -0.78300
C74         C  0.88563671  0.37178696  0.98307244     0.85200
O75         O  0.88587413  0.36067551  0.95996737    -0.65500
Ni76       Ni  0.92455082  0.37765832  0.85688900     1.27400
Ni77       Ni  0.91426733  0.41283600  0.88868503     1.26100
H78         H  0.87844555  0.38493744  0.90423990     0.39700
O79         O  0.09967591  0.49642561  0.52616767    -0.80200
O80         O  0.05170008  0.48677372  0.64692441    -0.64900
O81         O  0.09685853  0.49586586  0.59038113    -1.11500
C82         C  0.06497072  0.41855567  0.59840909     1.06600
O83         O  0.06182881  0.46766602  0.67665366    -0.78100
O84         O  0.09570347  0.46271429  0.65521223    -0.65700
Ni85       Ni  0.10546011  0.51749454  0.55876808     1.34900
C86         C  0.11029123  0.46526290  0.63571703     0.85400
O87         O  0.08565387  0.52360344  0.62370801    -0.78700
O88         O  0.11248310  0.54057525  0.58873015    -0.89000
C89         C  0.05054055  0.47723845  0.67217790     0.85000
O90         O  0.07712521  0.51477877  0.55131396    -0.67200
O91         O  0.06516339  0.42346834  0.62669702    -0.86400
C92         C  0.05783962  0.50266124  0.56249525     0.85800
C93         C  0.10191243  0.54106707  0.61231810     1.07400
H94         H  0.04903094  0.45413513  0.60553194     0.39200
O95         O  0.06397139  0.46156514  0.61358669    -1.09100
O96         O  0.10651867  0.46400114  0.60704261    -0.65800
Ni97       Ni  0.08389279  0.46462038  0.58190356     1.26300
O98         O  0.05437857  0.49098362  0.58661341    -0.66000
O99         O  0.06998205  0.43282320  0.57678690    -0.78300
C100        C  0.10353740  0.48037753  0.52420699     0.85200
O101        O  0.10273627  0.46901243  0.54758826    -0.65500
Ni102      Ni  0.06419805  0.44667610  0.64994655     1.27400
Ni103      Ni  0.07444225  0.49240192  0.61830444     1.26100
H104        H  0.11012965  0.50060759  0.60238136     0.39700
O105        O  0.04852872  0.23128181  0.85862666    -0.80200
O106        O  0.09218069  0.27654269  0.97839349    -0.64900
O107        O  0.05256495  0.23303174  0.92215325    -1.11500
C108        C  0.01322004  0.27144611  0.93437450     1.06600
O109        O  0.06372672  0.26709338  0.00890519    -0.78100
O110        O  0.02185002  0.23816306  0.98991222    -0.65700
Ni111      Ni  0.06378510  0.22385810  0.88908263     1.34900
C112        C  0.00946524  0.22325031  0.97089614     0.85400
O113        O  0.09107481  0.24098100  0.95392442    -0.78700
O114        O  0.07972516  0.21523147  0.91706947    -0.89000
C115        C  0.08454214  0.27804036  0.00397384     0.85000
O116        O  0.09013378  0.25163280  0.88057031    -0.67200
O117        O  0.01995656  0.27289229  0.96199553    -0.86400
C118        C  0.09902099  0.27079030  0.89276491     0.85800
C119        C  0.09103897  0.22452597  0.94113613     1.07400
H120        H  0.06289234  0.28187589  0.93789626     0.39200
O121        O  0.05455547  0.26709601  0.94650923    -1.09100
O122        O  0.01250293  0.22582611  0.94209160    -0.65800
Ni123      Ni  0.03549173  0.24754711  0.91566373     1.26300
O124        O  0.09252154  0.27433205  0.91830096    -0.66000
O125        O  0.01879496  0.26288214  0.91254740    -0.78300
C126        C  0.02855035  0.22720550  0.85793979     0.85200
O127        O  0.01900155  0.22885425  0.88185375    -0.65500
Ni128      Ni  0.04194191  0.26927725  0.98394340     1.27400
Ni129      Ni  0.07318364  0.25452439  0.94987879     1.26100
H130        H  0.04365349  0.21969275  0.93400026     0.39700
O131        O  0.15056248  0.43603328  0.31259835    -0.80200
O132        O  0.14623561  0.39051735  0.19100671    -0.64900
O133        O  0.15217778  0.43434762  0.24848456    -1.11500
C134        C  0.07461385  0.39847996  0.23955062     1.06600
O135        O  0.12505502  0.39805922  0.16169270    -0.78100
O136        O  0.11589654  0.42904791  0.18176041    -0.65700
Ni137      Ni  0.17274556  0.44278079  0.28148138     1.34900
C138        C  0.11887451  0.44432762  0.20025060     0.85400
O139        O  0.18156787  0.42582339  0.21486610    -0.78700
O140        O  0.19692056  0.45025047  0.25346215    -0.89000
C141        C  0.13651170  0.38869943  0.16573794     0.85000
O142        O  0.17024306  0.41469098  0.28926680    -0.67200
O143        O  0.07908860  0.39699431  0.21162742    -0.86400
C144        C  0.15989725  0.39575261  0.27658584     0.85800
C145        C  0.19831344  0.44119544  0.22880557     1.07400
H146        H  0.11263076  0.38566643  0.23388913     0.39200
O147        O  0.11907125  0.40037283  0.22503304    -1.09100
O148        O  0.11949067  0.44219585  0.22924456    -0.65800
Ni149      Ni  0.12083075  0.42044396  0.25605934     1.26300
O150        O  0.14980236  0.39249867  0.25111527    -0.66000
O151        O  0.08910942  0.40550139  0.26095870    -0.78300
C152        C  0.13472740  0.44013381  0.31395168     0.85200
O153        O  0.12399196  0.43953147  0.28995859    -0.65500
Ni154      Ni  0.10306943  0.39801566  0.18860274     1.27400
Ni155      Ni  0.15015474  0.41260774  0.22012924     1.26100
H156        H  0.15677992  0.44782867  0.23690635     0.39700
O157        O  0.12582109  0.73291036  0.66536441    -0.80200
O158        O  0.12664431  0.69329360  0.79500361    -0.64900
O159        O  0.11932109  0.72476383  0.72849776    -1.11500
C160        C  0.19860264  0.76664292  0.73045293     1.06600
O161        O  0.15295493  0.72458865  0.81622052    -0.78100
O162        O  0.17177235  0.76537107  0.79091728    -0.65700
Ni163      Ni  0.10445636  0.70994935  0.69205850     1.34900
C164        C  0.15977895  0.77247096  0.77929847     0.85400
O165        O  0.09035094  0.68901908  0.76496030    -0.78700
O166        O  0.08114206  0.68595733  0.71507739    -0.89000
C167        C  0.13733140  0.70440608  0.81850426     0.85000
O168        O  0.11974514  0.69399392  0.68676530    -0.67200
O169        O  0.19791524  0.75583341  0.75454229    -0.86400
C170        C  0.12286348  0.68212194  0.70592996     0.85800
C171        C  0.07620577  0.68036447  0.74310778     1.07400
H172        H  0.15840113  0.71803183  0.74055108     0.39200
O173        O  0.15339469  0.72645224  0.75221402    -1.09100
O174        O  0.14863990  0.76437216  0.75479710    -0.65800
Ni175      Ni  0.15013431  0.74533183  0.72378146     1.26300
O176        O  0.12218285  0.68462281  0.73477691    -0.66000
O177        O  0.18129592  0.76529795  0.71848726    -0.78300
C178        C  0.13551275  0.75385526  0.66925911     0.85200
O179        O  0.14483751  0.76242309  0.69450025    -0.65500
Ni180      Ni  0.17452740  0.73973275  0.78415906     1.27400
Ni181      Ni  0.12219558  0.70758929  0.76023264     1.26100
H182        H  0.11196626  0.73227043  0.73665755     0.39700
O183        O  0.06297428  0.80459432  0.50796916    -0.80200
O184        O  0.02200207  0.80154723  0.38032469    -0.64900
O185        O  0.05513734  0.79635076  0.44605829    -1.11500
C186        C  0.09428864  0.87590896  0.44471541     1.06600
O187        O  0.05174290  0.83002529  0.35878681    -0.78100
O188        O  0.09317428  0.85011177  0.38317044    -0.65700
Ni189      Ni  0.04128380  0.78110927  0.48268004     1.34900
C190        C  0.10082615  0.83832597  0.39392002     0.85400
O191        O  0.02002212  0.76606918  0.41037217    -0.78700
O192        O  0.01871133  0.75629755  0.45998883    -0.89000
C193        C  0.03214229  0.81316355  0.35682519     0.85000
O194        O  0.02280710  0.79359653  0.48824014    -0.67200
O195        O  0.08280225  0.87493283  0.42125890    -0.86400
C196        C  0.01120851  0.79719205  0.46930385     0.85800
C197        C  0.01274967  0.75152671  0.43201751     1.07400
H198        H  0.04614274  0.83397217  0.43508960     0.39200
O199        O  0.05492125  0.82969824  0.42288497    -1.09100
O200        O  0.09346760  0.82680540  0.41838418    -0.65800
Ni201      Ni  0.07477596  0.82743194  0.45063821     1.26300
O202        O  0.01394064  0.79713109  0.44044820    -0.66000
O203        O  0.09387795  0.85878347  0.45583175    -0.78300
C204        C  0.08380097  0.81334332  0.50470828     0.85200
O205        O  0.09275157  0.82287555  0.47963245    -0.65500
Ni206      Ni  0.06691632  0.85147922  0.39132933     1.27400
Ni207      Ni  0.03724049  0.79818304  0.41479075     1.26100
H208        H  0.06311164  0.78955246  0.43764929     0.39700
O209        O  0.86238753  0.60542446  0.84221360    -0.80200
O210        O  0.85903387  0.55856091  0.71828737    -0.64900
O211        O  0.86849009  0.60104983  0.77974991    -1.11500
C212        C  0.78932566  0.56638203  0.77814943     1.06600
O213        O  0.83349064  0.56359559  0.69479873    -0.78100
O214        O  0.81637156  0.58813920  0.71640907    -0.65700
Ni215      Ni  0.88369468  0.60288487  0.81662141     1.34900
C216        C  0.82910919  0.60760758  0.72662315     0.85400
O217        O  0.89619083  0.59202849  0.74512086    -0.78700
O218        O  0.90682555  0.60160260  0.79419523    -0.89000
C219        C  0.84885686  0.55872822  0.69420831     0.85000
O220        O  0.86914675  0.57175106  0.82506496    -0.67200
O221        O  0.78925094  0.55468685  0.75552629    -0.86400
C222        C  0.86533684  0.55589061  0.80711359     0.85800
C223        C  0.91089043  0.59904601  0.76641312     1.07400
H224        H  0.82817770  0.55500789  0.77149452     0.39200
O225        O  0.83349584  0.56798075  0.75854014    -1.09100
O226        O  0.84046853  0.61125637  0.75097047    -0.65800
Ni227      Ni  0.83802727  0.59186720  0.78424224     1.26300
O228        O  0.86446673  0.55760270  0.77817588    -0.66000
O229        O  0.80717986  0.58219643  0.78932555    -0.78300
C230        C  0.85327823  0.61697755  0.83646888     0.85200
O231        O  0.84453242  0.61584593  0.81067916    -0.65500
Ni232      Ni  0.81228189  0.55952630  0.72642479     1.27400
Ni233      Ni  0.86451818  0.57936606  0.75038691     1.26100
H234        H  0.87618049  0.61551232  0.77006619     0.39700
O235        O  0.92510894  0.73938938  0.99459053    -0.80200
O236        O  0.96827912  0.77649265  0.12229199    -0.64900
O237        O  0.93377174  0.73872708  0.05670907    -1.11500
C238        C  0.89467942  0.77869439  0.06154968     1.06600
O239        O  0.93924279  0.77571191  0.14486057    -0.78100
O240        O  0.89756967  0.75376178  0.12192219    -0.65700
Ni241      Ni  0.94668132  0.73697282  0.01952764     1.34900
C242        C  0.88924493  0.73445140  0.11030253     0.85400
O243        O  0.96867525  0.74246382  0.09139405    -0.78700
O244        O  0.96851058  0.73343233  0.04177173    -0.89000
C245        C  0.95863737  0.77809812  0.14617257     0.85000
O246        O  0.96664341  0.76805646  0.01404610    -0.67200
O247        O  0.90658306  0.78926735  0.08467775    -0.86400
C248        C  0.97882427  0.78296640  0.03314350     0.85800
C249        C  0.97473447  0.73429631  0.06954565     1.07400
H250        H  0.94391117  0.78573947  0.06878361     0.39200
O251        O  0.93503610  0.77250114  0.08083722    -1.09100
O252        O  0.89603912  0.73076657  0.08512997    -0.65800
Ni253      Ni  0.91464043  0.75053723  0.05317225     1.26300
O254        O  0.97562999  0.78019340  0.06196291    -0.66000
O255        O  0.89564778  0.76272230  0.04913189    -0.78300
C256        C  0.90426231  0.72780121  0.99884403     0.85200
O257        O  0.89612775  0.72826100  0.02454329    -0.65500
Ni258      Ni  0.92339180  0.78185553  0.11327619     1.27400
Ni259      Ni  0.95224701  0.75810811  0.08789852     1.26100
H260        H  0.92562967  0.72386193  0.06510137     0.39700
O261        O  0.05737254  0.59766791  0.17983112    -0.80200
O262        O  0.09743296  0.64241990  0.05361478    -0.64900
O263        O  0.05819543  0.60558928  0.11695354    -1.11500
C264        C  0.10054735  0.56885710  0.11411854     1.06600
O265        O  0.09794026  0.61414875  0.03083616    -0.78100
O266        O  0.07462445  0.57252130  0.05140469    -0.65700
Ni267      Ni  0.05345997  0.61766316  0.15327885     1.34900
C268        C  0.05594638  0.56260901  0.06476320     0.85400
O269        O  0.06191329  0.64087760  0.08183199    -0.78700
O270        O  0.04805896  0.63769233  0.12951026    -0.89000
C271        C  0.10061620  0.63363182  0.03001539     0.85000
O272        O  0.08361276  0.64018394  0.16050526    -0.67200
O273        O  0.10902082  0.57915423  0.08909615    -0.86400
C274        C  0.09950622  0.65204476  0.14240094     0.85800
C275        C  0.05104848  0.64495554  0.10202707     1.07400
H276        H  0.10649285  0.61797923  0.10621865     0.39200
O277        O  0.09327809  0.60865132  0.09445232    -1.09100
O278        O  0.05274495  0.56756454  0.09157195    -0.65800
Ni279      Ni  0.07175508  0.58798256  0.12259469     1.26300
O280        O  0.09854776  0.64814507  0.11380662    -0.66000
O281        O  0.08589883  0.57084409  0.12875114    -0.78300
C282        C  0.04714280  0.57672558  0.17580382     0.85200
O283        O  0.04965058  0.56888397  0.15103718    -0.65500
Ni284      Ni  0.10280652  0.59727493  0.06171241     1.27400
Ni285      Ni  0.07808106  0.62505518  0.08661211     1.26100
H286        H  0.04386218  0.59664030  0.10742367     0.39700
O287        O  0.92354056  0.53143771  0.33146227    -0.80200
O288        O  0.88644174  0.53603808  0.46070404    -0.64900
O289        O  0.92352181  0.54004484  0.39410742    -1.11500
C290        C  0.88489331  0.46053595  0.40115990     1.06600
O291        O  0.88904099  0.50879272  0.48364828    -0.78100
O292        O  0.91075250  0.48958987  0.46061622    -0.65700
Ni293      Ni  0.92318952  0.55400448  0.35688930     1.34900
C294        C  0.92979738  0.50097022  0.44850199     0.85400
O295        O  0.91947716  0.57074620  0.42917570    -0.78700
O296        O  0.92397365  0.57856061  0.37875648    -0.89000
C297        C  0.88615262  0.52547244  0.48470551     0.85000
O298        O  0.89172414  0.53896522  0.35275856    -0.67200
O299        O  0.87490671  0.46195219  0.42482313    -0.86400
C300        C  0.87772992  0.53772062  0.37228000     0.85800
C301        C  0.92503197  0.58448512  0.40673112     1.07400
H302        H  0.87707446  0.50216514  0.40805531     0.39200
O303        O  0.89060781  0.50701212  0.41963512    -1.09100
O304        O  0.93283854  0.51090652  0.42279507    -0.65800
Ni305      Ni  0.91226600  0.50894776  0.39131371     1.26300
O306        O  0.88173346  0.53948777  0.40094000    -0.66000
O307        O  0.90046782  0.47758073  0.38797952    -0.78300
C308        C  0.93448928  0.52154756  0.33592415     0.85200
O309        O  0.93406094  0.51300482  0.36179308    -0.65500
Ni310      Ni  0.88240358  0.48643671  0.45273396     1.27400
Ni311      Ni  0.90443311  0.53869314  0.42601847     1.26100
H312        H  0.93844290  0.54730322  0.40159902     0.39700
O313        O  0.71516355  0.56368653  0.19249188    -0.80200
O314        O  0.75862951  0.60909643  0.31664296    -0.64900
O315        O  0.72063428  0.56765030  0.25644813    -1.11500
C316        C  0.68498471  0.61056800  0.26506037     1.06600
O317        O  0.72907693  0.60083922  0.34394943    -0.78100
O318        O  0.68763781  0.57680337  0.32263076    -0.65700
Ni319      Ni  0.73274613  0.55947835  0.22299123     1.34900
C320        C  0.67696616  0.56052173  0.30463535     0.85400
O321        O  0.75672617  0.57328964  0.29259905    -0.78700
O322        O  0.75165921  0.55385616  0.24956856    -0.89000
C323        C  0.75002598  0.61036823  0.34150715     0.85000
O324        O  0.75614790  0.58856539  0.21374052    -0.67200
O325        O  0.69222232  0.61380810  0.29252655    -0.86400
C326        C  0.76614847  0.60665348  0.22854866     0.85800
C327        C  0.75990821  0.56011443  0.27623914     1.07400
H328        H  0.73257134  0.61675360  0.27161894     0.39200
O329        O  0.72335976  0.60226405  0.28072420    -1.09100
O330        O  0.68135850  0.56156932  0.27619754    -0.65800
Ni331      Ni  0.70435082  0.58301008  0.24962282     1.26300
O332        O  0.76181712  0.60837531  0.25645446    -0.66000
O333        O  0.68857245  0.59910335  0.24538946    -0.78300
C334        C  0.69631266  0.56244541  0.19190205     0.85200
O335        O  0.68739069  0.56463734  0.21601192    -0.65500
Ni336      Ni  0.71083225  0.60676647  0.31680641     1.27400
Ni337      Ni  0.74045599  0.58822128  0.28623691     1.26100
H338        H  0.71117518  0.55392115  0.26722126     0.39700
O339        O  0.82275330  0.77595522  0.64227726    -0.80200
O340        O  0.81937900  0.72766166  0.52461521    -0.64900
O341        O  0.82503277  0.77301229  0.57865838    -1.11500
C342        C  0.74736946  0.73646666  0.56464848     1.06600
O343        O  0.80231472  0.73867753  0.49302024    -0.78100
O344        O  0.79092055  0.76901232  0.51009901    -0.65700
Ni345      Ni  0.84533206  0.78209804  0.61202788     1.34900
C346        C  0.79319073  0.78397317  0.52875260     0.85400
O347        O  0.85461147  0.76237485  0.54941390    -0.78700
O348        O  0.86991782  0.78930137  0.58454463    -0.89000
C349        C  0.81035997  0.72622080  0.49889695     0.85000
O350        O  0.84263135  0.75398144  0.62164981    -0.67200
O351        O  0.75294598  0.73561348  0.53698427    -0.86400
C352        C  0.83143787  0.73465228  0.61017847     0.85800
C353        C  0.87147483  0.77856713  0.56188384     1.07400
H354        H  0.78511800  0.72454800  0.56284287     0.39200
O355        O  0.79233358  0.73936279  0.55421336    -1.09100
O356        O  0.79293253  0.78129562  0.55767689    -0.65800
Ni357      Ni  0.79335973  0.75922329  0.58454162     1.26300
O358        O  0.82120962  0.73097377  0.58476144    -0.66000
O359        O  0.76133429  0.74418156  0.58689102    -0.78300
C360        C  0.80636580  0.77930080  0.64260452     0.85200
O361        O  0.79565890  0.77801575  0.61825006    -0.65500
Ni362      Ni  0.77836384  0.73776967  0.51630277     1.27400
Ni363      Ni  0.82334971  0.75059491  0.55203535     1.26100
H364        H  0.82991507  0.78620596  0.56630238     0.39700
O365        O  0.76609024  0.83081528  0.85421347    -0.80200
O366        O  0.71926146  0.82537985  0.97462202    -0.64900
O367        O  0.76392567  0.83194919  0.91853170    -1.11500
C368        C  0.72996806  0.75498379  0.92908238     1.06600
O369        O  0.72701150  0.80496358  0.00553788    -0.78100
O370        O  0.76144823  0.80038788  0.98491466    -0.65700
Ni371      Ni  0.77248450  0.85274143  0.88563092     1.34900
C372        C  0.77572025  0.80137734  0.96599570     0.85400
O373        O  0.75409263  0.86106409  0.95066321    -0.78700
O374        O  0.77996519  0.87672891  0.91413044    -0.89000
C375        C  0.71665973  0.81534168  0.99985931     0.85000
O376        O  0.74423349  0.84983209  0.87735458    -0.67200
O377        O  0.73129913  0.76064391  0.95721815    -0.86400
C378        C  0.72516015  0.83818803  0.88926604     0.85800
C379        C  0.77017028  0.87802896  0.93804565     1.07400
H380        H  0.71536141  0.79157221  0.93464323     0.39200
O381        O  0.73030427  0.79867215  0.94266185    -1.09100
O382        O  0.77195654  0.79916233  0.93721864    -0.65800
Ni383      Ni  0.74993244  0.80050920  0.91118256     1.26300
O384        O  0.72201407  0.82826384  0.91483875    -0.66000
O385        O  0.73478827  0.76875048  0.90694634    -0.78300
C386        C  0.76929399  0.81434623  0.85290072     0.85200
O387        O  0.76846814  0.80346241  0.87686592    -0.65500
Ni388      Ni  0.72998207  0.78400282  0.97950892     1.27400
Ni389      Ni  0.74189010  0.82971563  0.94644944     1.26100
H390        H  0.77727558  0.83657486  0.93030117     0.39700
O391        O  0.55806443  0.72319356  0.30676969    -0.80200
O392        O  0.60224008  0.76605097  0.18432667    -0.64900
O393        O  0.55952687  0.72724716  0.24277830    -1.11500
C394        C  0.59711059  0.68741845  0.22917676     1.06600
O395        O  0.59190804  0.73718794  0.15434584    -0.78100
O396        O  0.56299973  0.69620758  0.17485088    -0.65700
Ni397      Ni  0.55151596  0.73926631  0.27632712     1.34900
C398        C  0.54838469  0.68362121  0.19397755     0.85400
O399        O  0.56785401  0.76578468  0.21030316    -0.78700
O400        O  0.54366199  0.75624913  0.24883908    -0.89000
C401        C  0.60282575  0.75809047  0.15852686     0.85000
O402        O  0.58010649  0.76452093  0.28442751    -0.67200
O403        O  0.59722872  0.69325062  0.20136560    -0.86400
C404        C  0.59878594  0.77306713  0.27104505     0.85800
C405        C  0.55237481  0.76683772  0.22402226     1.07400
H406        H  0.60776810  0.73684882  0.22499052     0.39200
O407        O  0.59283476  0.72858196  0.21700503    -1.09100
O408        O  0.55140371  0.68645151  0.22287444    -0.65800
Ni409      Ni  0.57381585  0.70992029  0.24871407     1.26300
O410        O  0.60137701  0.76701925  0.24460274    -0.66000
O411        O  0.58942060  0.69361251  0.25136612    -0.78300
C412        C  0.55458301  0.70337694  0.30778054     0.85200
O413        O  0.55590779  0.69369412  0.28369891    -0.65500
Ni414      Ni  0.59406249  0.71549953  0.17954802     1.27400
Ni415      Ni  0.58074009  0.74749611  0.21397991     1.26100
H416        H  0.54592960  0.71830581  0.23155521     0.39700
O417        O  0.50513992  0.61140991  0.52109913    -0.80200
O418        O  0.50719717  0.57011992  0.64506473    -0.64900
O419        O  0.50279399  0.60753246  0.58482384    -1.11500
C420        C  0.58163538  0.64628957  0.59478905     1.06600
O421        O  0.52744850  0.60013364  0.67222961    -0.78100
O422        O  0.54506348  0.64181720  0.65140832    -0.65700
Ni423      Ni  0.48262362  0.59510084  0.55148469     1.34900
C424        C  0.53908600  0.65236434  0.63381748     0.85400
O425        O  0.47265009  0.57020311  0.61965532    -0.78700
O426        O  0.45791819  0.57748708  0.57866604    -0.89000
C427        C  0.51649330  0.57907759  0.67014746     0.85000
O428        O  0.48641815  0.57033860  0.54389443    -0.67200
O429        O  0.57751825  0.63800906  0.62174142    -0.86400
C430        C  0.49579292  0.56129446  0.55790664     0.85800
C431        C  0.45609987  0.56801652  0.60445723     1.07400
H432        H  0.54103338  0.59783452  0.60012256     0.39200
O433        O  0.53524345  0.60642141  0.60932594    -1.09100
O434        O  0.53506281  0.64782863  0.60538124    -0.65800
Ni435      Ni  0.53444748  0.62536130  0.57833390     1.26300
O436        O  0.50394145  0.56716817  0.58469615    -0.66000
O437        O  0.56658432  0.64275795  0.57493076    -0.78300
C438        C  0.52106682  0.63145176  0.51979049     0.85200
O439        O  0.53194134  0.64156569  0.54384909    -0.65500
Ni440      Ni  0.55186370  0.61882611  0.64562461     1.27400
Ni441      Ni  0.50404255  0.58791952  0.61435797     1.26100
H442        H  0.49803462  0.61646661  0.59572883     0.39700
O443        O  0.60570469  0.51148810  0.98048919    -0.80200
O444        O  0.56407505  0.51732837  0.86095967    -0.64900
O445        O  0.60239518  0.51108512  0.91645676    -1.11500
C446        C  0.64237185  0.58944875  0.90891170     1.06600
O447        O  0.59283255  0.53728402  0.83104932    -0.78100
O448        O  0.63480158  0.55052595  0.85079359    -0.65700
Ni449      Ni  0.59035077  0.48964670  0.94860439     1.34900
C450        C  0.64688333  0.54722415  0.86940327     0.85400
O451        O  0.56392097  0.48190004  0.88333453    -0.78700
O452        O  0.57404819  0.46582970  0.91934976    -0.89000
C453        C  0.57195222  0.52680865  0.83559731     0.85000
O454        O  0.56423926  0.49116725  0.95715772    -0.67200
O455        O  0.63573562  0.58547068  0.88114280    -0.86400
C456        C  0.55584395  0.50201153  0.94548091     0.85800
C457        C  0.56296525  0.46478511  0.89540188     1.07400
H458        H  0.59300353  0.55046816  0.90326373     0.39200
O459        O  0.60126792  0.54426729  0.89403756    -1.09100
O460        O  0.64300832  0.54480561  0.89807018    -0.65800
Ni461      Ni  0.61968952  0.54252996  0.92455943     1.26300
O462        O  0.56305011  0.51301148  0.92067806    -0.66000
O463        O  0.63655924  0.57443898  0.92966556    -0.78300
C464        C  0.62530848  0.52832175  0.98185085     0.85200
O465        O  0.63547551  0.53913091  0.95794211    -0.65500
Ni466      Ni  0.61419756  0.56056596  0.85757643     1.27400
Ni467      Ni  0.58239698  0.51318322  0.88899783     1.26100
H468        H  0.61130615  0.50691445  0.90435797     0.39700
O469        O  0.46740347  0.40225510  0.32295926    -0.80200
O470        O  0.45996058  0.36034959  0.45212771    -0.64900
O471        O  0.45816068  0.39468232  0.38504659    -1.11500
C472        C  0.53731612  0.43174525  0.39025447     1.06600
O473        O  0.48908024  0.38932211  0.47375229    -0.78100
O474        O  0.51015003  0.43045420  0.44995575    -0.65700
Ni475      Ni  0.44289233  0.38178745  0.34813658     1.34900
C476        C  0.49930756  0.43879901  0.43820485     0.85400
O477        O  0.42641924  0.36057837  0.42049145    -0.78700
O478        O  0.41705822  0.36103646  0.37092207    -0.89000
C479        C  0.47145441  0.37035106  0.47573810     0.85000
O480        O  0.45268828  0.36093256  0.34344585    -0.67200
O481        O  0.53544315  0.41993803  0.41372814    -0.86400
C482        C  0.45482863  0.34870677  0.36302234     0.85800
C483        C  0.41208303  0.35511885  0.39889774     1.07400
H484        H  0.49382971  0.38312542  0.39802336     0.39200
O485        O  0.49002682  0.39251922  0.40968678    -1.09100
O486        O  0.48888975  0.43218590  0.41288559    -0.65800
Ni487      Ni  0.48931241  0.41303872  0.38127942     1.26300
O488        O  0.45566177  0.35208477  0.39176886    -0.66000
O489        O  0.52072884  0.43123181  0.37727857    -0.78300
C490        C  0.47684693  0.42317103  0.32650781     0.85200
O491        O  0.48624306  0.43169731  0.35178899    -0.65500
Ni492      Ni  0.51115049  0.40401491  0.44215920     1.27400
Ni493      Ni  0.45835744  0.37623010  0.41693532     1.26100
H494        H  0.45203223  0.40334991  0.39317267     0.39700
O495        O  0.39256677  0.46623285  0.17269070    -0.80200
O496        O  0.34908850  0.46674931  0.04640569    -0.64900
O497        O  0.38263591  0.45991967  0.11021434    -1.11500
C498        C  0.42377137  0.53963189  0.10766687     1.06600
O499        O  0.37976506  0.49322566  0.02395241    -0.78100
O500        O  0.42131022  0.51312169  0.04724917    -0.65700
Ni501      Ni  0.36908809  0.44448526  0.14692134     1.34900
C502        C  0.42826761  0.50075387  0.05796311     0.85400
O503        O  0.34707300  0.43067611  0.07462570    -0.78700
O504        O  0.34505400  0.42083382  0.12428555    -0.89000
C505        C  0.35955023  0.47763501  0.02265137     0.85000
O506        O  0.35218690  0.45870318  0.15413641    -0.67200
O507        O  0.41200625  0.53880740  0.08465850    -0.86400
C508        C  0.33938082  0.46086818  0.13558171     0.85800
C509        C  0.33906775  0.41625260  0.09629751     1.07400
H510        H  0.37446842  0.49852910  0.10029622     0.39200
O511        O  0.38290157  0.49387054  0.08791457    -1.09100
O512        O  0.42042778  0.48921205  0.08214102    -0.65800
Ni513      Ni  0.40275059  0.49087838  0.11467349     1.26300
O514        O  0.34169480  0.46089401  0.10661785    -0.66000
O515        O  0.42266998  0.52226612  0.11926933    -0.78300
C516        C  0.41327482  0.47563485  0.16710420     0.85200
O517        O  0.42099327  0.48574650  0.14199023    -0.65500
Ni518      Ni  0.39539338  0.51511701  0.05557349     1.27400
Ni519      Ni  0.36463821  0.46252318  0.07974152     1.26100
H520        H  0.39013493  0.45287752  0.10124045     0.39700
O521        O  0.19642461  0.26965021  0.50947351    -0.80200
O522        O  0.19794811  0.22927905  0.38021297    -0.64900
O523        O  0.20267453  0.26719372  0.44641375    -1.11500
C524        C  0.12347110  0.22687871  0.44347227     1.06600
O525        O  0.16974049  0.23053673  0.35852981    -0.78100
O526        O  0.15061154  0.25208905  0.38232614    -0.65700
Ni527      Ni  0.21752402  0.26753409  0.48297625     1.34900
C528        C  0.16213691  0.27141373  0.39361009     0.85400
O529        O  0.23254251  0.26301078  0.41016141    -0.78700
O530        O  0.24095987  0.26684971  0.46024921    -0.89000
C531        C  0.18685917  0.22847641  0.35653585     0.85000
O532        O  0.20147258  0.23605534  0.48826213    -0.67200
O533        O  0.12453607  0.21658089  0.41991725    -0.86400
C534        C  0.19979998  0.22156739  0.46922961     0.85800
C535        C  0.24651182  0.26830220  0.43207176     1.07400
H536        H  0.16514947  0.22009595  0.43470177     0.39200
O537        O  0.16950743  0.23336550  0.42274426    -1.09100
O538        O  0.17257009  0.27515144  0.41889527    -0.65800
Ni539      Ni  0.17171908  0.25541036  0.45068905     1.26300
O540        O  0.20232111  0.22545670  0.44050116    -0.66000
O541        O  0.14053290  0.24312213  0.45547929    -0.78300
C542        C  0.18537615  0.27943773  0.50487697     0.85200
O543        O  0.17592825  0.27775259  0.47939814    -0.65500
Ni544      Ni  0.14820694  0.22405771  0.39066711     1.27400
Ni545      Ni  0.20086011  0.24761947  0.41479828     1.26100
H546        H  0.20960389  0.28217156  0.43841751     0.39700
O547        O  0.25860594  0.40163150  0.65818997    -0.80200
O548        O  0.30306522  0.44234068  0.78595765    -0.64900
O549        O  0.26898736  0.40371192  0.72064423    -1.11500
C550        C  0.23054685  0.44413379  0.72552380     1.06600
O551        O  0.27258794  0.43822445  0.80848080    -0.78100
O552        O  0.23134478  0.41810035  0.78527254    -0.65700
Ni553      Ni  0.28243422  0.40318078  0.68321407     1.34900
C554        C  0.22417979  0.39861212  0.77483789     0.85400
O555        O  0.30374252  0.40828565  0.75540447    -0.78700
O556        O  0.30672787  0.40320281  0.70492535    -0.89000
C557        C  0.29268563  0.44274255  0.80976980     0.85000
O558        O  0.29901567  0.43472842  0.67769447    -0.67200
O559        O  0.24247990  0.45458609  0.74863661    -0.86400
C560        C  0.31254905  0.44878064  0.69670451     0.85800
C561        C  0.31170646  0.40259898  0.73302637     1.07400
H562        H  0.27845773  0.45062963  0.73255779     0.39200
O563        O  0.26980883  0.43735493  0.74468948    -1.09100
O564        O  0.23170814  0.39511407  0.75024790    -0.65800
Ni565      Ni  0.24941690  0.41503401  0.71775637     1.26300
O566        O  0.31063944  0.44529680  0.72552132    -0.66000
O567        O  0.23017075  0.42706723  0.71431233    -0.78300
C568        C  0.23786971  0.39084233  0.66412752     0.85200
O569        O  0.23067794  0.39237085  0.69005635    -0.65500
Ni570      Ni  0.25788771  0.44597020  0.77748362     1.27400
Ni571      Ni  0.28724084  0.42348157  0.75175275     1.26100
H572        H  0.26127572  0.38879305  0.72879856     0.39700
O573        O  0.26214422  0.20188864  0.99350902    -0.80200
O574        O  0.21817057  0.20173988  0.12028549    -0.64900
O575        O  0.25808458  0.20869343  0.05587790    -1.11500
C576        C  0.22193816  0.12931315  0.06127241     1.06600
O577        O  0.22232938  0.17555320  0.14354782    -0.78100
O578        O  0.24533106  0.15715207  0.12082290    -0.65700
Ni579      Ni  0.25886660  0.22306010  0.01856567     1.34900
C580        C  0.26465154  0.16966236  0.11005321     0.85400
O581        O  0.25039290  0.23749867  0.09009731    -0.78700
O582        O  0.25698106  0.24624976  0.04010748    -0.89000
C583        C  0.21831876  0.19152862  0.14451842     0.85000
O584        O  0.22759412  0.20693688  0.01180624    -0.67200
O585        O  0.21063055  0.13005647  0.08376815    -0.86400
C586        C  0.21225084  0.20409325  0.03011378     0.85800
C587        C  0.25579518  0.25134083  0.06788334     1.07400
H588        H  0.21209210  0.16909871  0.06698897     0.39200
O589        O  0.22530867  0.17447031  0.07945093    -1.09100
O590        O  0.26814764  0.18081076  0.08547791    -0.65800
Ni591      Ni  0.24834353  0.17792101  0.05272742     1.26300
O592        O  0.21491175  0.20517647  0.05915568    -0.66000
O593        O  0.23796809  0.14672332  0.04933294    -0.78300
C594        C  0.27376760  0.19294513  0.99977958     0.85200
O595        O  0.27182985  0.18352365  0.02538497    -0.65500
Ni596      Ni  0.21691064  0.15374216  0.11225607     1.27400
Ni597      Ni  0.23738846  0.20577725  0.08636165     1.26100
H598        H  0.27272298  0.21643856  0.06459053     0.39700
O599        O  0.39722737  0.27060388  0.84116491    -0.80200
O600        O  0.43607334  0.31247626  0.71248653    -0.64900
O601        O  0.39754581  0.27857926  0.77813317    -1.11500
C602        C  0.43674494  0.23883132  0.77526256     1.06600
O603        O  0.43449224  0.28291518  0.69043632    -0.78100
O604        O  0.41134695  0.24185488  0.71330090    -0.65700
Ni605      Ni  0.39583804  0.29213603  0.81475389     1.34900
C606        C  0.39230298  0.23375356  0.72549781     0.85400
O607        O  0.40266634  0.31399902  0.74231621    -0.78700
O608        O  0.39362301  0.31441003  0.79164760    -0.89000
C609        C  0.43705944  0.30236818  0.68874497     0.85000
O610        O  0.42684450  0.31103721  0.82043638    -0.67200
O611        O  0.44642728  0.24957525  0.75094055    -0.86400
C612        C  0.44210924  0.32305418  0.80172711     0.85800
C613        C  0.39506514  0.32080052  0.76388658     1.07400
H614        H  0.44437767  0.28788647  0.76631297     0.39200
O615        O  0.43104133  0.27905957  0.75452149    -1.09100
O616        O  0.38907577  0.23986265  0.75155858    -0.65800
Ni617      Ni  0.40905912  0.25922881  0.78285489     1.26300
O618        O  0.43965952  0.32014374  0.77281986    -0.66000
O619        O  0.42126730  0.24038909  0.78808771    -0.78300
C620        C  0.38630117  0.24963456  0.83767520     0.85200
O621        O  0.38685185  0.24120484  0.81221769    -0.65500
Ni622      Ni  0.43984756  0.26679451  0.72221017     1.27400
Ni623      Ni  0.41739668  0.29682612  0.74682603     1.26100
H624        H  0.38277274  0.27046605  0.76957838     0.39700
O625        O  0.52832042  0.93530587  0.17082636    -0.80200
O626        O  0.52940367  0.89429144  0.04336058    -0.64900
O627        O  0.53612964  0.93395218  0.10819601    -1.11500
C628        C  0.45680428  0.89610692  0.10465890     1.06600
O629        O  0.50348165  0.89929285  0.02102075    -0.78100
O630        O  0.48377135  0.92072716  0.04487940    -0.65700
Ni631      Ni  0.55092584  0.93526329  0.14522161     1.34900
C632        C  0.49567524  0.94004049  0.05604694     0.85400
O633        O  0.56548423  0.92733472  0.07331957    -0.78700
O634        O  0.57514145  0.93624974  0.12282854    -0.89000
C635        C  0.51876635  0.89434713  0.01958321     0.85000
O636        O  0.53750278  0.90400402  0.15147397    -0.67200
O637        O  0.45761339  0.88525800  0.08152186    -0.86400
C638        C  0.53359182  0.88849485  0.13284338     0.85800
C639        C  0.57985943  0.93452865  0.09505247     1.07400
H640        H  0.49722009  0.88763315  0.09692908     0.39200
O641        O  0.50229541  0.90094901  0.08478258    -1.09100
O642        O  0.50729149  0.94361408  0.08013610    -0.65800
Ni643      Ni  0.50532889  0.92347705  0.11209150     1.26300
O644        O  0.53347077  0.89102352  0.10390576    -0.66000
O645        O  0.47413922  0.91228069  0.11638102    -0.78300
C646        C  0.51887534  0.94665535  0.16618339     0.85200
O647        O  0.51036973  0.94621920  0.14039578    -0.65500
Ni648      Ni  0.48140013  0.89258244  0.05244902     1.27400
Ni649      Ni  0.53359049  0.91357670  0.07738930     1.26100
H650        H  0.54346023  0.94872925  0.09943695     0.39700
O651        O  0.59148788  0.06649939  0.33063887    -0.80200
O652        O  0.63353482  0.10776964  0.45684615    -0.64900
O653        O  0.59918585  0.06744905  0.39321061    -1.11500
C654        C  0.56024422  0.10767119  0.39177117     1.06600
O655        O  0.60434731  0.10751124  0.47794509    -0.78100
O656        O  0.56301884  0.08425327  0.45527921    -0.65700
Ni657      Ni  0.61201399  0.06370585  0.35722777     1.34900
C658        C  0.55483724  0.06465286  0.44481111     0.85400
O659        O  0.63432567  0.07289996  0.42931178    -0.78700
O660        O  0.63262303  0.05964272  0.38146812    -0.89000
C661        C  0.62378378  0.11015612  0.48001052     0.85000
O662        O  0.63322526  0.09427429  0.35011715    -0.67200
O663        O  0.57154547  0.11829051  0.41524393    -0.86400
C664        C  0.64475255  0.11032071  0.36813790     0.85800
C665        C  0.63924496  0.06255600  0.40925656     1.07400
H666        H  0.60916526  0.11484485  0.40145133     0.39200
O667        O  0.60025176  0.10195500  0.41409793    -1.09100
O668        O  0.56120895  0.06036992  0.41968135    -0.65800
Ni669      Ni  0.58009026  0.07912648  0.38707507     1.26300
O670        O  0.64085900  0.10921144  0.39676092    -0.66000
O671        O  0.56123025  0.09136909  0.38040257    -0.78300
C672        C  0.57058857  0.05482164  0.33411726     0.85200
O673        O  0.56192392  0.05592115  0.35907370    -0.65500
Ni674      Ni  0.58843109  0.11220342  0.44513428     1.27400
Ni675      Ni  0.61760059  0.08804629  0.42346981     1.26100
H676        H  0.59093995  0.05298768  0.40279298     0.39700
O677        O  0.79434802  0.07024534  0.99407278    -0.80200
O678        O  0.79435118  0.02645448  0.12151344    -0.64900
O679        O  0.78795655  0.06001665  0.05696886    -1.11500
C680        C  0.86709214  0.10118073  0.06190995     1.06600
O681        O  0.81955774  0.05741515  0.14450885    -0.78100
O682        O  0.83996635  0.09899941  0.12106103    -0.65700
Ni683      Ni  0.77369778  0.04590041  0.01987860     1.34900
C684        C  0.82821120  0.10647705  0.10973467     0.85400
O685        O  0.75886726  0.02388511  0.09181229    -0.78700
O686        O  0.75074713  0.02043511  0.04159674    -0.89000
C687        C  0.80446721  0.03697377  0.14561977     0.85000
O688        O  0.79078914  0.03190312  0.01387976    -0.67200
O689        O  0.86599691  0.08939516  0.08507567    -0.86400
C690        C  0.79280060  0.01886083  0.03213762     0.85800
C691        C  0.74520569  0.01515298  0.06958879     1.07400
H692        H  0.82679444  0.05264591  0.06875713     0.39200
O693        O  0.82162013  0.06075970  0.08079258    -1.09100
O694        O  0.81677638  0.09850116  0.08546416    -0.65800
Ni695      Ni  0.81884115  0.08046149  0.05351166     1.26300
O696        O  0.79053380  0.01968356  0.06101651    -0.66000
O697        O  0.85004466  0.10038952  0.04991253    -0.78300
C698        C  0.80557222  0.09109521  0.99915754     0.85200
O699        O  0.81439191  0.09859994  0.02503611    -0.65500
Ni700      Ni  0.84201590  0.07299572  0.11367557     1.27400
Ni701      Ni  0.79047316  0.04198991  0.08779784     1.26100
H702        H  0.78046135  0.06730558  0.06539050     0.39700
O703        O  0.73206206  0.13658546  0.84073825    -0.80200
O704        O  0.68644633  0.13115136  0.71429117    -0.64900
O705        O  0.72213539  0.12785832  0.77840060    -1.11500
C706        C  0.75817781  0.20738859  0.77612738     1.06600
O707        O  0.71589334  0.15969322  0.69217385    -0.78100
O708        O  0.75780033  0.18218417  0.71476027    -0.65700
Ni709      Ni  0.71002456  0.11260813  0.81579014     1.34900
C710        C  0.76663189  0.17137290  0.72522041     0.85400
O711        O  0.68598053  0.09618406  0.74476448    -0.78700
O712        O  0.68782811  0.08704143  0.79393521    -0.89000
C713        C  0.69605983  0.14324608  0.69080044     0.85000
O714        O  0.68980504  0.12315765  0.82263445    -0.67200
O715        O  0.74600176  0.20570199  0.75318213    -0.86400
C716        C  0.67706593  0.12561720  0.80424046     0.85800
C717        C  0.68057050  0.08181193  0.76653532     1.07400
H718        H  0.71099096  0.16413510  0.76826183     0.39200
O719        O  0.71985010  0.16020895  0.75563125    -1.09100
O720        O  0.75954341  0.15947003  0.74937932    -0.65800
Ni721      Ni  0.74083420  0.15917705  0.78225179     1.26300
O722        O  0.67984616  0.12654980  0.77528799    -0.66000
O723        O  0.75890731  0.19075558  0.78698804    -0.78300
C724        C  0.75285342  0.14678173  0.83548800     0.85200
O725        O  0.76021301  0.15591638  0.80972850    -0.65500
Ni726      Ni  0.73065893  0.18178111  0.72378603     1.27400
Ni727      Ni  0.70280850  0.12850852  0.74819075     1.26100
H728        H  0.73041116  0.12161659  0.76929203     0.39700
O729        O  0.72819082  0.93384317  0.50682687    -0.80200
O730        O  0.76861821  0.97706203  0.37988435    -0.64900
O731        O  0.72928412  0.94349313  0.44474647    -1.11500
C732        C  0.76867626  0.90389817  0.44181477     1.06600
O733        O  0.76416798  0.94625391  0.35771031    -0.78100
O734        O  0.74368714  0.90501102  0.38135537    -0.65700
Ni735      Ni  0.72881537  0.95714221  0.48195755     1.34900
C736        C  0.72412916  0.89763478  0.39142587     0.85400
O737        O  0.73518604  0.97924143  0.40987013    -0.78700
O738        O  0.72829998  0.98092348  0.45997223    -0.89000
C739        C  0.76885857  0.96645112  0.35627152     0.85000
O740        O  0.76021683  0.97443623  0.48771571    -0.67200
O741        O  0.77933365  0.91585722  0.41873546    -0.86400
C742        C  0.77487457  0.98714674  0.46865703     0.85800
C743        C  0.72883583  0.98682430  0.43206513     1.07400
H744        H  0.77562458  0.95187508  0.43386834     0.39200
O745        O  0.76248675  0.94342795  0.42149297    -1.09100
O746        O  0.72021240  0.90522699  0.41571298    -0.65800
Ni747      Ni  0.73987510  0.92323156  0.44838014     1.26300
O748        O  0.77169996  0.98482482  0.43983995    -0.66000
O749        O  0.75155959  0.90357938  0.45270090    -0.78300
C750        C  0.71596890  0.91308499  0.50192531     0.85200
O751        O  0.71683185  0.90496570  0.47635260    -0.65500
Ni752      Ni  0.77138696  0.93144668  0.38926932     1.27400
Ni753      Ni  0.74945437  0.96165041  0.41387816     1.26100
H754        H  0.71445839  0.93598586  0.43635888     0.39700
O755        O  0.59268564  0.86519796  0.66038127    -0.80200
O756        O  0.54741271  0.86389436  0.78416820    -0.64900
O757        O  0.58984572  0.87221541  0.72293674    -1.11500
C758        C  0.55425687  0.79281956  0.72538738     1.06600
O759        O  0.55158192  0.83791048  0.80816776    -0.78100
O760        O  0.57633791  0.82082708  0.78742570    -0.65700
Ni761      Ni  0.59244345  0.88768299  0.68596686     1.34900
C762        C  0.59569067  0.83253601  0.77635607     0.85400
O763        O  0.58102171  0.90083760  0.75675903    -0.78700
O764        O  0.59312533  0.91169651  0.70851808    -0.89000
C765        C  0.54705391  0.85356434  0.80844212     0.85000
O766        O  0.56163461  0.87507268  0.67750517    -0.67200
O767        O  0.54312311  0.79298757  0.74857384    -0.86400
C768        C  0.54536351  0.87004853  0.69514063     0.85800
C769        C  0.58968429  0.91586543  0.73581794     1.07400
H770        H  0.54362153  0.83226095  0.73179854     0.39200
O771        O  0.55661681  0.83758315  0.74459770    -1.09100
O772        O  0.59942633  0.84325327  0.75127103    -0.65800
Ni773      Ni  0.58010257  0.84153381  0.71838370     1.26300
O774        O  0.54660051  0.86842374  0.72402732    -0.66000
O775        O  0.56969489  0.81055719  0.71340661    -0.78300
C776        C  0.60421703  0.85599568  0.66510764     0.85200
O777        O  0.60370372  0.84745743  0.69096601    -0.65500
Ni778      Ni  0.54781664  0.81645385  0.77700540     1.27400
Ni779      Ni  0.56822625  0.86885812  0.75216267     1.26100
H780        H  0.60420912  0.87957969  0.73278150     0.39700
O781        O  0.16816970  0.94857206  0.85876922    -0.80200
O782        O  0.17704713  0.90756236  0.97812740    -0.64900
O783        O  0.16918969  0.94537656  0.92299537    -1.11500
C784        C  0.24655250  0.98886728  0.92819374     1.06600
O785        O  0.19924830  0.93618377  0.00741350    -0.78100
O786        O  0.20408476  0.97514899  0.98759716    -0.65700
Ni787      Ni  0.14725297  0.93309291  0.89164003     1.34900
C788        C  0.20152032  0.98785153  0.96930536     0.85400
O789        O  0.14076552  0.90664933  0.95706584    -0.78700
O790        O  0.12424658  0.91673309  0.92167763    -0.89000
C791        C  0.18771999  0.91531332  0.00281838     0.85000
O792        O  0.14900601  0.90709363  0.88291917    -0.67200
O793        O  0.24208883  0.98389291  0.95647516    -0.86400
C794        C  0.16049406  0.89921808  0.89392475     0.85800
C795        C  0.12347271  0.90555563  0.94539569     1.07400
H796        H  0.20954364  0.93690164  0.93525000     0.39200
O797        O  0.20304317  0.94498284  0.94424683    -1.09100
O798        O  0.20241660  0.98619588  0.94030636    -0.65800
Ni799      Ni  0.20032925  0.96289447  0.91356476     1.26300
O800        O  0.17194900  0.90657481  0.91829472    -0.66000
O801        O  0.23199271  0.97992182  0.90699796    -0.78300
C802        C  0.18470752  0.96834245  0.85685011     0.85200
O803        O  0.19618429  0.97846693  0.88032131    -0.65500
Ni804      Ni  0.21944363  0.95949689  0.98002282     1.27400
Ni805      Ni  0.17208288  0.92566426  0.95036741     1.26100
H806        H  0.16507094  0.95423809  0.93531085     0.39700
O807        O  0.27173175  0.84119747  0.30988762    -0.80200
O808        O  0.23185725  0.84695847  0.18831410    -0.64900
O809        O  0.26888530  0.84005301  0.24589117    -1.11500
C810        C  0.31248784  0.91749585  0.23325221     1.06600
O811        O  0.26077801  0.86457056  0.15785738    -0.78100
O812        O  0.30063527  0.87315699  0.17900711    -0.65700
Ni813      Ni  0.25601022  0.81923476  0.27852197     1.34900
C814        C  0.31318319  0.87120788  0.19822459     0.85400
O815        O  0.22936610  0.81135594  0.21389966    -0.78700
O816        O  0.23902303  0.79510502  0.25011885    -0.89000
C817        C  0.23996942  0.85525156  0.16241391     0.85000
O818        O  0.23080599  0.82249975  0.28581254    -0.67200
O819        O  0.30701026  0.91185227  0.20534224    -0.86400
C820        C  0.22333434  0.83412260  0.27400004     0.85800
C821        C  0.22762880  0.79410913  0.22661033     1.07400
H822        H  0.26215283  0.88078901  0.22837211     0.39200
O823        O  0.26969228  0.87335766  0.22059333    -1.09100
O824        O  0.31065174  0.87202490  0.22712710    -0.65800
Ni825      Ni  0.28731204  0.87164649  0.25252598     1.26300
O826        O  0.23084450  0.84469659  0.24886968    -0.66000
O827        O  0.30488503  0.90360664  0.25559853    -0.78300
C828        C  0.29148486  0.85764328  0.31180319     0.85200
O829        O  0.30212560  0.86871091  0.28812170    -0.65500
Ni830      Ni  0.28357926  0.88736462  0.18331915     1.27400
Ni831      Ni  0.24938583  0.84249194  0.21759241     1.26100
H832        H  0.27736734  0.83509814  0.23429172     0.39700
O833        O  0.37950087  0.89578567  0.52544474    -0.80200
O834        O  0.42318602  0.94064447  0.64725830    -0.64900
O835        O  0.38408756  0.89800234  0.58924018    -1.11500
C836        C  0.34586582  0.93756473  0.60288224     1.06600
O837        O  0.39405308  0.92938167  0.67663396    -0.78100
O838        O  0.35270977  0.90272320  0.65690789    -0.65700
Ni839      Ni  0.39567512  0.88941070  0.55583627     1.34900
C840        C  0.34054839  0.88793802  0.63772423     0.85400
O841        O  0.42255181  0.90594022  0.62159017    -0.78700
O842        O  0.41282284  0.88173665  0.58304417    -0.89000
C843        C  0.41486248  0.94099842  0.67282381     0.85000
O844        O  0.42103931  0.91781890  0.54741725    -0.67200
O845        O  0.35236353  0.93832064  0.63045866    -0.86400
C846        C  0.43001305  0.93661236  0.56063468     0.85800
C847        C  0.42374524  0.89064226  0.60750084     1.07400
H848        H  0.39451598  0.94663629  0.60653969     0.39200
O849        O  0.38606529  0.93174137  0.61466901    -1.09100
O850        O  0.34383417  0.89068621  0.60896076    -0.65800
Ni851      Ni  0.36721064  0.91285494  0.58322550     1.26300
O852        O  0.42406701  0.93945614  0.58700692    -0.66000
O853        O  0.35116537  0.92892083  0.58078202    -0.78300
C854        C  0.35989504  0.89278901  0.52475115     0.85200
O855        O  0.35063761  0.89478077  0.54877262    -0.65500
Ni856      Ni  0.37344125  0.93350437  0.65218786     1.27400
Ni857      Ni  0.40452869  0.91913290  0.61783004     1.26100
H858        H  0.37501427  0.88445453  0.60063918     0.39700
O859        O  0.48965019  0.10985278  0.97502456    -0.80200
O860        O  0.47969737  0.05865219  0.85607554    -0.64900
O861        O  0.48916987  0.10496944  0.91103164    -1.11500
C862        C  0.41131690  0.07182513  0.90279903     1.06600
O863        O  0.46112563  0.06908161  0.82631581    -0.78100
O864        O  0.45244807  0.10079009  0.84482239    -0.65700
Ni865      Ni  0.51048295  0.11355925  0.94319807     1.34900
C866        C  0.45652517  0.11644497  0.86324786     0.85400
O867        O  0.51658341  0.09269342  0.87837492    -0.78700
O868        O  0.53375628  0.11843992  0.91461962    -0.89000
C869        C  0.46976610  0.05704553  0.83111906     0.85000
O870        O  0.50560704  0.08471082  0.95310723    -0.67200
O871        O  0.41544387  0.06943735  0.87503397    -0.86400
C872        C  0.49395495  0.06552130  0.94142290     0.85800
C873        C  0.53417200  0.10777323  0.89110879     1.07400
H874        H  0.44761031  0.05705137  0.89790845     0.39200
O875        O  0.45478825  0.07168139  0.88871582    -1.09100
O876        O  0.45749596  0.11440683  0.89215426    -0.65800
Ni877      Ni  0.45783018  0.09240182  0.91913907     1.26300
O878        O  0.48399407  0.06222736  0.91585984    -0.66000
O879        O  0.42598615  0.07886000  0.92412895    -0.78300
C880        C  0.47322037  0.11308243  0.97628348     0.85200
O881        O  0.46216257  0.11207399  0.95248374    -0.65500
Ni882      Ni  0.43910182  0.06970020  0.85220172     1.27400
Ni883      Ni  0.48554875  0.08199050  0.88376792     1.26100
H884        H  0.49414166  0.11819206  0.89870517     0.39700
O885        O  0.22771911  0.05993630  0.64481631    -0.80200
O886        O  0.26889704  0.10159429  0.52167796    -0.64900
O887        O  0.22731637  0.06283948  0.58100213    -1.11500
C888        C  0.26750662  0.02510908  0.56939253     1.06600
O889        O  0.25956753  0.07233307  0.49280857    -0.78100
O890        O  0.23284240  0.03066643  0.51371652    -0.87300
Ni891      Ni  0.21917581  0.07452916  0.61466481     1.34900
C892        C  0.21763686  0.01902599  0.53280217     0.85400
O893        O  0.23360248  0.10037926  0.54772468    -0.78700
O894        O  0.20986171  0.09010720  0.58736307    -0.89000
C895        C  0.26992650  0.09332705  0.49634604     0.85000
O896        O  0.24684974  0.10115003  0.62111140    -0.67200
O897        O  0.26885522  0.03146765  0.54157439    -0.86400
C898        C  0.26551480  0.11011817  0.60768107     0.85800
C899        C  0.21801848  0.10073103  0.56244533     1.07400
H900        H  0.27581954  0.07373281  0.56383760     0.39200
O901        O  0.26103236  0.06495551  0.55553667    -1.09100
O902        O  0.22009179  0.02264738  0.56155977    -0.65800
Ni903      Ni  0.24218829  0.04613982  0.58726983     1.26300
O904        O  0.26836280  0.10331502  0.58196234    -0.66000
O905        O  0.25806710  0.03008407  0.59063264    -0.78300
C906        C  0.22335509  0.03982942  0.64594817     0.85200
O907        O  0.22424804  0.02988950  0.62195099    -0.65500
Ni908      Ni  0.26357093  0.05202122  0.51866475     1.27400
Ni909      Ni  0.24785612  0.08303566  0.55177978     1.26100
H910        H  0.21366561  0.05357421  0.57005824     0.39700
O911        O  0.43050645  0.15900729  0.18888717    -0.80200
O912        O  0.38540834  0.15711481  0.31054558    -0.64900
O913        O  0.42830201  0.16102538  0.25297117    -1.11500
C914        C  0.38835922  0.08296385  0.26429844     1.06600
O915        O  0.39401978  0.13715465  0.34031421    -0.78100
O916        O  0.42207445  0.12361700  0.32033816    -0.65700
Ni917      Ni  0.43711215  0.18147782  0.21955012     1.34900
C918        C  0.43709509  0.12654433  0.30133847     0.85400
O919        O  0.42107179  0.19143469  0.28623937    -0.78700
O920        O  0.44469514  0.20619536  0.24682728    -0.89000
C921        C  0.38327413  0.14719323  0.33571214     0.85000
O922        O  0.40911822  0.17886029  0.21119813    -0.67200
O923        O  0.38697665  0.08788822  0.29204831    -0.86400
C924        C  0.39048552  0.16957744  0.22470511     0.85800
C925        C  0.43611196  0.20799025  0.27169323     1.07400
H926        H  0.37930161  0.12282192  0.26891900     0.39200
O927        O  0.39400250  0.12888243  0.27750645    -1.09100
O928        O  0.43470157  0.12749296  0.27254252    -0.65800
Ni929      Ni  0.41325170  0.12933190  0.24628614     1.26300
O930        O  0.38742167  0.16042209  0.25090263    -0.66000
O931        O  0.39726430  0.09737749  0.24278128    -0.78300
C932        C  0.43322423  0.14221800  0.18804790     0.85200
O933        O  0.43162418  0.13113085  0.21216385    -0.65500
Ni934      Ni  0.39122144  0.11333143  0.31461957     1.27400
Ni935      Ni  0.40717122  0.16010558  0.28159591     1.26100
H936        H  0.44174456  0.16531351  0.26435369     0.39700
C937        C  0.33273854  0.14390118  0.37345918    -0.27600
C938        C  0.33490906  0.13819450  0.40358841     0.06100
C939        C  0.35406113  0.13748760  0.41176062     0.25700
C940        C  0.37029184  0.14160403  0.38991134    -0.12000
C941        C  0.36784202  0.14657071  0.35949151    -0.26000
C942        C  0.34913022  0.14826299  0.35159738     0.36500
C943        C  0.31623544  0.13026643  0.42552984     0.06100
F944        F  0.35632944  0.13120391  0.44035877    -0.19800
H945        H  0.38443045  0.14007144  0.39657279     0.15900
F946        F  0.34588696  0.15261997  0.32234735    -0.23500
H947        H  0.31799371  0.14428611  0.36665445     0.17700
C948        C  0.31966341  0.13884966  0.45541002     0.25700
C949        C  0.30356669  0.12774147  0.47800866    -0.12000
C950        C  0.28392250  0.10784641  0.47115883    -0.26000
C951        C  0.27957989  0.10057438  0.44056554     0.36600
C952        C  0.29561733  0.11177844  0.41795323    -0.27700
F953        F  0.33911006  0.15723078  0.46309977    -0.19800
H954        H  0.30719447  0.13381899  0.50131936     0.15900
F955        F  0.26030158  0.08201668  0.43280378    -0.23500
H956        H  0.29254020  0.10505376  0.39496967     0.17700
C957        C  0.43900463  0.11612806  0.04231000    -0.27600
C958        C  0.45401265  0.12239502  0.06695482     0.06100
C959        C  0.47541588  0.12597795  0.06126319     0.25700
C960        C  0.48154472  0.12332333  0.03173165    -0.12000
C961        C  0.46658088  0.11709777  0.00701062    -0.26000
C962        C  0.44516062  0.11355560  0.01268120     0.36500
C963        C  0.44763418  0.12617984  0.09808190     0.06100
F964        F  0.49067026  0.13265613  0.08407585    -0.19800
H965        H  0.49817390  0.12624297  0.02822323     0.15900
F966        F  0.42992313  0.10700789  0.98986514    -0.23500
H967        H  0.42233921  0.11303034  0.04607206     0.17700
C968        C  0.43822391  0.13976106  0.10166857     0.25700
C969        C  0.43333038  0.14436749  0.13082027    -0.12000
C970        C  0.43754915  0.13556430  0.15741183    -0.26000
C971        C  0.44641004  0.12141630  0.15386289     0.36600
C972        C  0.45147661  0.11690103  0.12449138    -0.27700
F973        F  0.43454644  0.14938621  0.07700952    -0.19800
H974        H  0.42638095  0.15517407  0.13250303     0.15900
F975        F  0.45076452  0.11244793  0.17866257    -0.23500
H976        H  0.45849586  0.10617958  0.12237109     0.17700
C977        C  0.31444646  0.96297070  0.56438147    -0.27600
C978        C  0.30901859  0.97177892  0.58978063     0.06100
C979        C  0.31468669  0.96811098  0.61915705     0.25700
C980        C  0.32582427  0.95630211  0.62291649    -0.12000
C981        C  0.33196508  0.94801150  0.59754427    -0.26000
C982        C  0.32587256  0.95128508  0.56810911     0.36500
C983        C  0.29841866  0.98559678  0.58544960     0.06100
F984        F  0.31047293  0.97688434  0.64423529    -0.19800
H985        H  0.33016716  0.95422590  0.64600847     0.15900
F986        F  0.33141333  0.94379279  0.54289968    -0.23500
H987        H  0.31005182  0.96539736  0.54149052     0.17700
C988        C  0.30715219  0.00309895  0.56410441     0.25700
C989        C  0.29705556  0.01583920  0.55955850    -0.12000
C990        C  0.27820732  0.01177755  0.57645681    -0.26000
C991        C  0.26978278  0.99471385  0.59853441     0.36600
C992        C  0.27977318  0.98169000  0.60284210    -0.27700
F993        F  0.32579228  0.00824226  0.54804600    -0.19800
H994        H  0.30415849  0.02912171  0.54277296     0.15900
F995        F  0.25145971  0.99004847  0.61501891    -0.23500
H996        H  0.27269066  0.96826637  0.61940293     0.17700
C997        C  0.43196144  0.96833730  0.75020706    -0.27600
C998        C  0.45012381  0.98902380  0.74212644     0.06100
C999        C  0.45865960  0.99242009  0.71226618     0.25700
C1000       C  0.44816387  0.97580628  0.69023211    -0.12000
C1001       C  0.42878976  0.95580515  0.69760033    -0.26000
C1002       C  0.42122779  0.95184864  0.72810741     0.36500
C1003       C  0.45803903  0.00771281  0.76373777     0.06100
F1004       F  0.47640500  0.01224549  0.70407842    -0.19800
H1005       H  0.45426895  0.97923444  0.66691456     0.15900
F1006       F  0.40282493  0.93251582  0.73624623    -0.23500
H1007       H  0.42521178  0.96549090  0.77317655     0.17700
C1008       C  0.45597517  0.02621604  0.75619182     0.25700
C1009       C  0.46088154  0.04273290  0.77782742    -0.12000
C1010       C  0.46787262  0.04109754  0.80740601    -0.26000
C1011       C  0.47067525  0.02289988  0.81461088     0.36600
C1012       C  0.46559381  0.00625756  0.79292506    -0.27700
F1013       F  0.44787145  0.02761920  0.72851207    -0.19800
H1014       H  0.45846152  0.05646066  0.77169088     0.15900
F1015       F  0.47712692  0.02051174  0.84301330    -0.23500
H1016       H  0.46702337  0.99194132  0.79911095     0.17700
C1017       C  0.32845669  0.88980088  0.37997072    -0.27600
C1018       C  0.31861390  0.87422552  0.40389316     0.06100
C1019       C  0.29994335  0.85350033  0.39728721     0.25700
C1020       C  0.29154166  0.84840718  0.36741232    -0.12000
C1021       C  0.30144585  0.86380252  0.34319680    -0.26000
C1022       C  0.31997771  0.88475504  0.34997551     0.36500
C1023       C  0.32875463  0.87907145  0.43507950     0.06100
F1024       F  0.29029896  0.83780864  0.41950153    -0.19800
H1025       H  0.27728381  0.83212027  0.36320719     0.15900
F1026       F  0.32972321  0.90049551  0.32787245    -0.23500
H1027       H  0.34281627  0.90594614  0.38457532     0.17700
C1028       C  0.35088021  0.88443453  0.43877161     0.25700
C1029       C  0.36055229  0.88870235  0.46783635    -0.12000
C1030       C  0.34852984  0.88782726  0.49426298    -0.26000
C1031       C  0.32618183  0.88218832  0.49065153     0.36600
C1032       C  0.31642609  0.87777651  0.46132551    -0.27700
F1033       F  0.36305034  0.88496571  0.41422417    -0.19800
H1034       H  0.37767785  0.89275187  0.46950631     0.15900
F1035       F  0.31369844  0.88073950  0.51530877    -0.23500
H1036       H  0.29925550  0.87348304  0.45905463     0.17700
C1037       C  0.34489066  0.97397298  0.27229560    -0.27600
C1038       C  0.35157879  0.98841468  0.24686617     0.06100
C1039       C  0.34736556  0.97926228  0.21736102     0.25700
C1040       C  0.33584589  0.95625470  0.21346903    -0.12000
C1041       C  0.32781355  0.94165886  0.23879992    -0.26000
C1042       C  0.33299111  0.95082247  0.26840871     0.36500
C1043       C  0.36130386  0.01277622  0.25107692     0.06100
F1044       F  0.35303107  0.99248116  0.19216130    -0.19800
H1045       H  0.33237458  0.94994173  0.19027494     0.15900
F1046       F  0.32583646  0.93758630  0.29358816    -0.23500
H1047       H  0.34833434  0.98065498  0.29529889     0.17700
C1048       C  0.35121514  0.02084500  0.27107579     0.25700
C1049       C  0.35993766  0.04366310  0.27450241    -0.12000
C1050       C  0.37871006  0.05902300  0.25784042    -0.26000
C1051       C  0.38861391  0.05109840  0.23734915     0.36600
C1052       C  0.38004443  0.02813990  0.23419360    -0.27700
F1053       F  0.33256274  0.00668876  0.28680569    -0.19800
H1054       H  0.35189262  0.04937736  0.29026751     0.15900
F1055       F  0.40703609  0.06548631  0.22141232    -0.23500
H1056       H  0.38822264  0.02235781  0.21880900     0.17700
C1057       C  0.21224810  0.99852669  0.71107654    -0.27600
C1058       C  0.20803341  0.00889725  0.73567358     0.06100
C1059       C  0.20883693  0.02919810  0.73049249     0.25700
C1060       C  0.21368855  0.03886724  0.70135040    -0.12000
C1061       C  0.21798821  0.02865037  0.67653189    -0.26000
C1062       C  0.21730678  0.00831214  0.68180400     0.36500
C1063       C  0.20241660  0.99842931  0.76657744     0.06100
F1064       F  0.20435596  0.03943305  0.75349801    -0.19800
H1065       H  0.21392652  0.05443424  0.69824440     0.15900
F1066       F  0.22184323  0.99803722  0.65894239    -0.23500
H1067       H  0.21182578  0.98290796  0.71466150     0.17700
C1068       C  0.18360090  0.97735717  0.77091412     0.25700
C1069       C  0.17794734  0.96790821  0.80022142    -0.12000
C1070       C  0.19097758  0.97914766  0.82598599    -0.26000
C1071       C  0.20996792  0.00028335  0.82148311     0.36600
C1072       C  0.21546905  0.00979587  0.79211725    -0.27700
F1073       F  0.17032478  0.96614646  0.74687568    -0.19800
H1074       H  0.16322986  0.95168423  0.80267254     0.15900
F1075       F  0.22335724  0.01176933  0.84528623    -0.23500
H1076       H  0.23007636  0.02606244  0.78923753     0.17700
C1077       C  0.35244825  0.05890298  0.88929105    -0.27600
C1078       C  0.34126842  0.04525428  0.91436391     0.06100
C1079       C  0.35375645  0.04265964  0.93776647     0.25700
C1080       C  0.37692664  0.05273645  0.93526501    -0.12000
C1081       C  0.38795913  0.06543552  0.90933052    -0.26000
C1082       C  0.37552707  0.06903339  0.88685125     0.36500
C1083       C  0.31659442  0.03301886  0.91542730     0.06100
F1084       F  0.34339572  0.02923531  0.96209978    -0.19800
H1085       H  0.38603757  0.04949729  0.95264839     0.15900
F1086       F  0.38569186  0.08190458  0.86196549    -0.23500
H1087       H  0.34321791  0.06139866  0.87128545     0.17700
C1088       C  0.30545648  0.03545472  0.94048233     0.25700
C1089       C  0.28245731  0.02197199  0.94322019    -0.12000
C1090       C  0.26995853  0.00575946  0.92104011    -0.26000
C1091       C  0.28089287  0.00435150  0.89481978     0.36600
C1092       C  0.30404773  0.01793422  0.89208913    -0.27700
F1093       F  0.31690768  0.05058563  0.96267407    -0.19800
H1094       H  0.27444863  0.02370013  0.96340867     0.15900
F1095       F  0.26954141  0.98883704  0.87301344    -0.23500
H1096       H  0.31233287  0.01592240  0.87244568     0.17700
C1097       C  0.19567527  0.89412544  0.07863940    -0.27600
C1098       C  0.19444179  0.87417069  0.06978724     0.06100
C1099       C  0.18805006  0.86639755  0.03975261     0.25700
C1100       C  0.18425601  0.87917817  0.01845667    -0.12000
C1101       C  0.18721036  0.90002344  0.02672828    -0.26000
C1102       C  0.19223677  0.90704786  0.05735470     0.36500
C1103       C  0.20265352  0.86350099  0.09121039     0.06100
F1104       F  0.18635016  0.84694065  0.03076105    -0.19800
H1105       H  0.18033612  0.87339116  0.99504420     0.15900
F1106       F  0.19468071  0.92679359  0.06652515    -0.23500
H1107       H  0.20061230  0.90037325  0.10171684     0.17700
C1108       C  0.22185581  0.86266952  0.08403094     0.25700
C1109       C  0.23317476  0.85838770  0.10699647    -0.12000
C1110       C  0.22544257  0.85472595  0.13735925    -0.26000
C1111       C  0.20512028  0.85357335  0.14385499     0.36600
C1112       C  0.19396034  0.85811283  0.12094264    -0.27700
F1113       F  0.23084973  0.86812224  0.05556418    -0.19800
H1114       H  0.24867450  0.85917893  0.10134270     0.15900
F1115       F  0.19705263  0.85010885  0.17284188    -0.23500
H1116       H  0.17922951  0.85879235  0.12683038     0.17700
C1117       C  0.50387674  0.86978928  0.63819627    -0.27600
C1118       C  0.48736294  0.86848956  0.65784010     0.06100
C1119       C  0.48873803  0.86490440  0.68929430     0.25700
C1120       C  0.50708971  0.86429923  0.70101629    -0.12000
C1121       C  0.52444213  0.86713431  0.68168340    -0.26000
C1122       C  0.52222518  0.86910892  0.64984916     0.36500
C1123       C  0.46994345  0.87280619  0.64574148     0.06100
F1124       F  0.47256534  0.86248975  0.70886423    -0.19800
H1125       H  0.50803879  0.86240665  0.72549476     0.15900
F1126       F  0.53813709  0.87129183  0.62994967    -0.23500
H1127       H  0.50312410  0.87242074  0.61387633     0.17700
C1128       C  0.46620807  0.88878029  0.65975462     0.25700
C1129       C  0.45082493  0.89386073  0.64751300    -0.12000
C1130       C  0.43896177  0.88353476  0.62059775    -0.26000
C1131       C  0.44268276  0.86748792  0.60649637     0.36600
C1132       C  0.45804292  0.86223217  0.61901986    -0.27700
F1133       F  0.47825615  0.90039551  0.68448023    -0.19800
H1134       H  0.44866734  0.90644101  0.65894065     0.15900
F1135       F  0.43186878  0.85715344  0.58040212    -0.23500
H1136       H  0.46079693  0.85000155  0.60768588     0.17700
C1137       C  0.68781170  0.89408557  0.57893531    -0.27600
C1138       C  0.66815000  0.87455274  0.57115900     0.06100
C1139       C  0.66527003  0.86660427  0.54093960     0.25700
C1140       C  0.68155968  0.87849547  0.51878796    -0.12000
C1141       C  0.70071809  0.89869881  0.52629315    -0.26000
C1142       C  0.70389006  0.90611167  0.55683701     0.36500
C1143       C  0.64992486  0.86453804  0.59389857     0.06100
F1144       F  0.64645009  0.84774099  0.53266968    -0.19800
H1145       H  0.67865073  0.87247736  0.49543305     0.15900
F1146       F  0.72218482  0.92541286  0.56526133    -0.23500
H1147       H  0.69023037  0.90073107  0.60191955     0.17700
C1148       C  0.65391550  0.86047939  0.62416278     0.25700
C1149       C  0.63817314  0.85596934  0.64705991    -0.12000
C1150       C  0.61836597  0.85569930  0.64015673    -0.26000
C1151       C  0.61363173  0.85790422  0.60942640     0.36600
C1152       C  0.62929428  0.86227114  0.58657351    -0.27700
F1153       F  0.67349888  0.86199302  0.63181937    -0.19800
H1154       H  0.64211992  0.85414145  0.67049159     0.15900
F1155       F  0.59427068  0.85684207  0.60162606    -0.23500
H1156       H  0.62586513  0.86537678  0.56346214     0.17700
C1157       C  0.63455560  0.12464423  0.86032229    -0.27600
C1158       C  0.61818441  0.12348078  0.84043761     0.06100
C1159       C  0.62209518  0.12479192  0.80869572     0.25700
C1160       C  0.64156611  0.12629822  0.79718119    -0.12000
C1161       C  0.65762883  0.12651040  0.81698840    -0.26000
C1162       C  0.65400310  0.12606243  0.84888834     0.36500
C1163       C  0.59677138  0.11997428  0.85293968     0.06100
F1164       F  0.60703796  0.12457297  0.78876405    -0.19800
H1165       H  0.64378356  0.12676911  0.77260498     0.15900
F1166       F  0.66893716  0.12646521  0.86921455    -0.23500
H1167       H  0.63194721  0.12373045  0.88484804     0.17700
C1168       C  0.57647815  0.10201284  0.84295256     0.25700
C1169       C  0.55640958  0.09845355  0.85519443    -0.12000
C1170       C  0.55594880  0.11256231  0.87794024    -0.26000
C1171       C  0.57636596  0.13047691  0.88813058     0.36600
C1172       C  0.59648964  0.13404422  0.87575626    -0.27700
F1173       F  0.57606611  0.08737263  0.82209775    -0.19800
H1174       H  0.54116113  0.08428904  0.84709571     0.15900
F1175       F  0.57700052  0.14460266  0.90999615    -0.23500
H1176       H  0.61193458  0.14791080  0.88393666     0.17700
C1177       C  0.61150970  0.97185114  0.77647710    -0.27600
C1178       C  0.61902290  0.98669453  0.75135328     0.06100
C1179       C  0.61427584  0.97770487  0.72171716     0.25700
C1180       C  0.60338444  0.95471080  0.71735695    -0.12000
C1181       C  0.59715248  0.93978090  0.74226517    -0.26000
C1182       C  0.60053904  0.94862020  0.77206853     0.36500
C1183       C  0.63390187  0.01123721  0.75581392     0.06100
F1184       F  0.62175013  0.99112953  0.69672936    -0.19800
H1185       H  0.60082748  0.94867890  0.69402763     0.15900
F1186       F  0.59431574  0.93502316  0.79689120    -0.23500
H1187       H  0.61477965  0.97830652  0.79960376     0.17700
C1188       C  0.63086621  0.02712566  0.73960004     0.25700
C1189       C  0.64643527  0.05001937  0.74201420    -0.12000
C1190       C  0.66509257  0.05758815  0.76108530    -0.26000
C1191       C  0.66784652  0.04165291  0.77762554     0.36600
C1192       C  0.65251854  0.01890237  0.77489969    -0.27700
F1193       F  0.61256764  0.02057547  0.72199723    -0.19800
H1194       H  0.64355249  0.06186340  0.72970151     0.15900
F1195       F  0.68566752  0.04802892  0.79620355    -0.23500
H1196       H  0.65551074  0.00716111  0.78730680     0.17700
C1197       C  0.76363794  0.97576047  0.27206264    -0.27600
C1198       C  0.78378408  0.99540355  0.26607145     0.06100
C1199       C  0.79889014  0.00564164  0.29046218     0.25700
C1200       C  0.79359679  0.99670808  0.32010137    -0.12000
C1201       C  0.77355536  0.97704233  0.32579114    -0.26000
C1202       C  0.75872701  0.96646090  0.30145506     0.36500
C1203       C  0.78859628  0.00557137  0.23483058     0.06100
F1204       F  0.81908593  0.02389827  0.28550860    -0.19800
H1205       H  0.80549162  0.00471606  0.33841427     0.15900
F1206       F  0.73929354  0.94724694  0.30626063    -0.23500
H1207       H  0.75151419  0.96768447  0.25404859     0.17700
C1208       C  0.78418477  0.99266223  0.20805678     0.25700
C1209       C  0.78880520  0.00276765  0.17902652    -0.12000
C1210       C  0.79825989  0.02592260  0.17610729    -0.26000
C1211       C  0.80241245  0.03870367  0.20288837     0.36600
C1212       C  0.79742648  0.02859458  0.23168641    -0.27700
F1213       F  0.77609541  0.97040671  0.20989362    -0.19800
H1214       H  0.78555255  0.99254918  0.15886067     0.15900
F1215       F  0.81100837  0.06105460  0.20136634    -0.23500
H1216       H  0.80034764  0.03889110  0.25167132     0.17700
C1217       C  0.80826845  0.13990303  0.95659247    -0.27600
C1218       C  0.80203170  0.13093264  0.92703840     0.06100
C1219       C  0.80099710  0.11067863  0.92041186     0.25700
C1220       C  0.80378336  0.09854795  0.94371883    -0.12000
C1221       C  0.80792918  0.10646377  0.97397886    -0.26000
C1222       C  0.81146278  0.12790538  0.97989513     0.36500
C1223       C  0.79274252  0.14026475  0.90488252     0.06100
F1224       F  0.79516252  0.10155290  0.89207416    -0.19800
H1225       H  0.80144819  0.08231157  0.93835183     0.15900
F1226       F  0.81615549  0.13649404  0.00859849    -0.23500
H1227       H  0.80938394  0.15561782  0.96202174     0.17700
C1228       C  0.77376795  0.14131366  0.91287006     0.25700
C1229       C  0.76158152  0.14479294  0.89037106    -0.12000
C1230       C  0.76819129  0.14755883  0.85956759    -0.26000
C1231       C  0.78820052  0.14834064  0.85194275     0.36600
C1232       C  0.80025398  0.14454863  0.87445756    -0.27700
F1233       F  0.76587039  0.13698323  0.94197064    -0.19800
H1234       H  0.74634689  0.14428025  0.89686474     0.15900
F1235       F  0.79513783  0.15088063  0.82242185    -0.23500
H1236       H  0.81481774  0.14377535  0.86786950     0.17700
C1237       C  0.63246307  0.11741655  0.56663447    -0.27600
C1238       C  0.65511963  0.12470696  0.56968488     0.06100
C1239       C  0.66758535  0.12739630  0.54300335     0.25700
C1240       C  0.65741904  0.12259760  0.51400667    -0.12000
C1241       C  0.63468024  0.11534688  0.51086949    -0.26000
C1242       C  0.62235284  0.11296050  0.53775577     0.36500
C1243       C  0.66545070  0.12937933  0.60077305     0.06100
F1244       F  0.68950868  0.13418695  0.54501730    -0.19800
H1245       H  0.66740326  0.12464399  0.49396796     0.15900
F1246       F  0.60036032  0.10599961  0.53641587    -0.23500
H1247       H  0.62255257  0.11533964  0.58678114     0.17700
C1248       C  0.68358623  0.15037563  0.60795339     0.25700
C1249       C  0.69307107  0.15463402  0.63723567    -0.12000
C1250       C  0.68475545  0.13814777  0.66028128    -0.26000
C1251       C  0.66639033  0.11716265  0.65316696     0.36600
C1252       C  0.65683817  0.11293545  0.62377555    -0.27700
F1253       F  0.69183719  0.16699155  0.58685742    -0.19800
H1254       H  0.70700329  0.17104628  0.64189207     0.15900
F1255       F  0.65801797  0.10053265  0.67421877    -0.23500
H1256       H  0.64284320  0.09662980  0.61878322     0.17700
C1257       C  0.52597449  0.13559647  0.37509185    -0.27600
C1258       C  0.51305835  0.12315299  0.34998758     0.06100
C1259       C  0.51669124  0.10653541  0.33788144     0.25700
C1260       C  0.53232606  0.10208232  0.35116608    -0.12000
C1261       C  0.54483334  0.11400818  0.37692842    -0.26000
C1262       C  0.54167483  0.13114769  0.38845438     0.36500
C1263       C  0.49499312  0.12654221  0.33756818     0.06100
F1264       F  0.50437794  0.09380739  0.31403435    -0.19800
H1265       H  0.53424107  0.08882290  0.34151311     0.15900
F1266       F  0.55340416  0.14340287  0.41294704    -0.23500
H1267       H  0.52374708  0.14870078  0.38460586     0.17700
C1268       C  0.47912989  0.12675987  0.35720766     0.25700
C1269       C  0.46089920  0.12755870  0.34526540    -0.12000
C1270       C  0.45791046  0.12814489  0.31344295    -0.26000
C1271       C  0.47432575  0.12887207  0.29380675     0.36600
C1272       C  0.49259771  0.12810188  0.30582416    -0.27700
F1273       F  0.48054277  0.12496951  0.38796967    -0.19800
H1274       H  0.44872973  0.12705496  0.36111453     0.15900
F1275       F  0.47249057  0.12963040  0.26294359    -0.23500
H1276       H  0.50474572  0.12832391  0.29019106     0.17700
C1277       C  0.50907604  0.03255175  0.50324921    -0.27600
C1278       C  0.50327156  0.01047926  0.49712211     0.06100
C1279       C  0.51486833  0.00639697  0.47404273     0.25700
C1280       C  0.53145520  0.02399205  0.45705617    -0.12000
C1281       C  0.53712964  0.04608436  0.46295365    -0.26000
C1282       C  0.52587107  0.05018280  0.48661659     0.36500
C1283       C  0.48452088  0.99179551  0.51382620     0.06100
F1284       F  0.51041389  0.98539179  0.46818482    -0.19800
H1285       H  0.54002546  0.02029733  0.43943239     0.15900
F1286       F  0.53065164  0.07117715  0.49336780    -0.23500
H1287       H  0.50023501  0.03617107  0.52053997     0.17700
C1288       C  0.48235520  0.99213966  0.54587456     0.25700
C1289       C  0.46437577  0.97442112  0.56093620    -0.12000
C1290       C  0.44838793  0.95589491  0.54446004    -0.26000
C1291       C  0.45055284  0.95568668  0.51239763     0.36600
C1292       C  0.46827605  0.97349882  0.49738596    -0.27700
F1293       F  0.49794198  0.00925070  0.56276453    -0.19800
H1294       H  0.46326644  0.97495578  0.58562051     0.15900
F1295       F  0.43537350  0.93840776  0.49532910    -0.23500
H1296       H  0.46918620  0.97304491  0.47267154     0.17700
C1297       C  0.70856032  0.02716670  0.44755746    -0.27600
C1298       C  0.69638588  0.02508471  0.42097596     0.06100
C1299       C  0.69800415  0.01311679  0.39599953     0.25700
C1300       C  0.70993422  0.00188032  0.39875290    -0.12000
C1301       C  0.72063281  0.00254061  0.42630118    -0.26000
C1302       C  0.72063363  0.01618401  0.45021725     0.36500
C1303       C  0.68130971  0.03449427  0.42019154     0.06100
F1304       F  0.68773867  0.01195400  0.36907839    -0.19800
H1305       H  0.70985019  0.99177406  0.37987919     0.15900
F1306       F  0.73169340  0.01832445  0.47676050    -0.23500
H1307       H  0.70795739  0.03654430  0.46691818     0.17700
C1308       C  0.65927936  0.02148852  0.40995973     0.25700
C1309       C  0.64543135  0.03055414  0.40826561    -0.12000
C1310       C  0.65291382  0.05256270  0.41738708    -0.26000
C1311       C  0.67445679  0.06527093  0.42922746     0.36600
C1312       C  0.68853455  0.05627621  0.43059016    -0.27700
F1313       F  0.65100957  0.99992003  0.40176216    -0.19800
H1314       H  0.62883289  0.02045259  0.39912274     0.15900
F1315       F  0.68232419  0.08673181  0.43757952    -0.23500
H1316       H  0.70533335  0.06657731  0.43888830     0.17700
C1317       C  0.53274557  0.86713507  0.95461405    -0.27600
C1318       C  0.53222192  0.87918525  0.92890842     0.06100
C1319       C  0.52796681  0.89670837  0.93372097     0.25700
C1320       C  0.52393335  0.90162020  0.96328889    -0.12000
C1321       C  0.52454811  0.88961477  0.98887664    -0.26000
C1322       C  0.52930414  0.87247221  0.98429128     0.36500
C1323       C  0.53628175  0.87343025  0.89746499     0.06100
F1324       F  0.52815495  0.90944171  0.90999884    -0.19800
H1325       H  0.52046943  0.91503438  0.96624989     0.15900
F1326       F  0.52967167  0.86023815  0.00829191    -0.23500
H1327       H  0.53549298  0.85325661  0.95172149     0.17700
C1328       C  0.55335610  0.86861246  0.89237569     0.25700
C1329       C  0.55645145  0.86207495  0.86345620    -0.12000
C1330       C  0.54317398  0.86084742  0.83852513    -0.26000
C1331       C  0.52656562  0.86637700  0.84305108     0.36600
C1332       C  0.52298829  0.87231835  0.87235762    -0.27700
F1333       F  0.56748972  0.87071581  0.91521378    -0.19800
H1334       H  0.56962905  0.85831164  0.86039340     0.15900
F1335       F  0.51329827  0.86522680  0.81950930    -0.23500
H1336       H  0.50953024  0.87563674  0.87550474     0.17700
C1337       C  0.41317473  0.89739730  0.15601024    -0.27600
C1338       C  0.39341849  0.87865793  0.14629131     0.06100
C1339       C  0.39461754  0.86572400  0.12231410     0.25700
C1340       C  0.41510938  0.87140758  0.10881421    -0.12000
C1341       C  0.43492757  0.89004703  0.11887172    -0.26000
C1342       C  0.43359261  0.90301043  0.14277022     0.36500
C1343       C  0.37177390  0.87359914  0.16040838     0.06100
F1344       F  0.37606185  0.84731991  0.11223571    -0.19800
H1345       H  0.41543919  0.86108208  0.09055386     0.15900
F1346       F  0.45195881  0.92140704  0.15335862    -0.23500
H1347       H  0.41281949  0.90810700  0.17367119     0.17700
C1348       C  0.36963959  0.87526954  0.19230458     0.25700
C1349       C  0.35012994  0.87322812  0.20477337    -0.12000
C1350       C  0.33220455  0.86936100  0.18585587    -0.26000
C1351       C  0.33387282  0.86626351  0.15418016     0.36600
C1352       C  0.35342316  0.86855468  0.14175708    -0.27700
F1353       F  0.38655868  0.87921552  0.21148398    -0.19800
H1354       H  0.34942432  0.87554221  0.22916627     0.15900
F1355       F  0.31689009  0.86174829  0.13478685    -0.23500
H1356       H  0.35447711  0.86730705  0.11718655     0.17700
C1357       C  0.52187907  0.99531750  0.20871037    -0.27600
C1358       C  0.52559929  0.99073007  0.23876761     0.06100
C1359       C  0.52364478  0.97002756  0.24532152     0.25700
C1360       C  0.52005576  0.95510308  0.22170988    -0.12000
C1361       C  0.51807209  0.96041219  0.19127018    -0.26000
C1362       C  0.51800662  0.98024537  0.18508993     0.36500
C1363       C  0.53486044  0.00860063  0.26203445     0.06100
F1364       F  0.52712112  0.96501478  0.27409688    -0.19800
H1365       H  0.51988589  0.93980656  0.22707254     0.15900
F1366       F  0.51608406  0.98595321  0.15597870    -0.23500
H1367       H  0.52316624  0.01112849  0.20328721     0.17700
C1368       C  0.55478343  0.02844017  0.25594028     0.25700
C1369       C  0.56562916  0.04390338  0.27919244    -0.12000
C1370       C  0.55691884  0.03994637  0.30901518    -0.26000
C1371       C  0.53645827  0.02052864  0.31483355     0.36600
C1372       C  0.52556449  0.00500427  0.29146132    -0.27700
F1373       F  0.56465711  0.03212644  0.22807985    -0.19800
H1374       H  0.58138231  0.05864101  0.27409468     0.15900
F1375       F  0.52776913  0.01575596  0.34348853    -0.23500
H1376       H  0.51029611  0.98974214  0.29661616     0.17700
C1377       C  0.68789949  0.98620722  0.10538684    -0.27600
C1378       C  0.67478682  0.97260098  0.08112994     0.06100
C1379       C  0.68546538  0.97123271  0.05465060     0.25700
C1380       C  0.70853083  0.98416214  0.05189753    -0.12000
C1381       C  0.72154644  0.99860554  0.07553170    -0.26000
C1382       C  0.71104440  0.99889915  0.10282197     0.36500
C1383       C  0.65009181  0.96075222  0.08317241     0.06100
F1384       F  0.67360768  0.95758152  0.03125010    -0.19800
H1385       H  0.71618660  0.98331239  0.03077297     0.15900
F1386       F  0.72291107  0.01251519  0.12624169    -0.23500
H1387       H  0.68015848  0.98776889  0.12596287     0.17700
C1388       C  0.63917252  0.94938014  0.11003091     0.25700
C1389       C  0.61624537  0.94007752  0.11287978    -0.12000
C1390       C  0.60349355  0.94166044  0.08903292    -0.26000
C1391       C  0.61420103  0.95218939  0.06160867     0.36600
C1392       C  0.63729556  0.96172677  0.05883113    -0.27700
F1393       F  0.65067080  0.94735192  0.13370560    -0.19800
H1394       H  0.60845202  0.93191026  0.13420308     0.15900
F1395       F  0.60265000  0.95450792  0.03827904    -0.23500
H1396       H  0.64529148  0.97067303  0.03803959     0.17700
C1397       C  0.51074334  0.99820206  0.02937977    -0.27600
C1398       C  0.49327657  0.99340481  0.00894103     0.06100
C1399       C  0.47665583  0.97112687  0.00464718     0.25700
C1400       C  0.47775036  0.95409363  0.01998041    -0.12000
C1401       C  0.49525958  0.95876609  0.04027748    -0.26000
C1402       C  0.51169451  0.98111619  0.04511267     0.36500
C1403       C  0.49259939  0.01155324  0.99183238     0.06100
F1404       F  0.45903991  0.96579172  0.98610114    -0.19800
H1405       H  0.46459731  0.93712773  0.01616084     0.15900
F1406       F  0.52891221  0.98648744  0.06444928    -0.23500
H1407       H  0.52390010  0.01521513  0.03282100     0.17700
C1408       C  0.49621964  0.03095367  0.00684245     0.25700
C1409       C  0.49621118  0.04816190  0.99032357    -0.12000
C1410       C  0.49235168  0.04636599  0.95856980    -0.26000
C1411       C  0.48815588  0.02671958  0.94363247     0.36600
C1412       C  0.48847319  0.00961365  0.96012608    -0.27700
F1413       F  0.49945428  0.03318876  0.03757517    -0.19800
H1414       H  0.49922746  0.06297833  0.00249074     0.15900
F1415       F  0.48460782  0.02433514  0.91296137    -0.23500
H1416       H  0.48593837  0.99498013  0.94793187     0.17700
C1417       C  0.43648443  0.19449271  0.82668844    -0.27600
C1418       C  0.45427736  0.19275784  0.81513979     0.06100
C1419       C  0.46692141  0.20683850  0.79094396     0.25700
C1420       C  0.46144183  0.22202047  0.77825325    -0.12000
C1421       C  0.44329660  0.22347011  0.78948730    -0.26000
C1422       C  0.43106293  0.20962937  0.81429791     0.36500
C1423       C  0.45830474  0.17515787  0.82739647     0.06100
F1424       F  0.48461206  0.20599074  0.77970456    -0.19800
H1425       H  0.47132770  0.23252860  0.75949473     0.15900
F1426       F  0.41340528  0.21016323  0.82635850    -0.23500
H1427       H  0.42626141  0.18358576  0.84494002     0.17700
C1428       C  0.45890594  0.17204705  0.85915219     0.25700
C1429       C  0.45941243  0.15351217  0.87055792    -0.12000
C1430       C  0.45914185  0.13753310  0.85063146    -0.26000
C1431       C  0.45947893  0.14119182  0.81874591     0.36600
C1432       C  0.45912819  0.15984252  0.80739825    -0.27700
F1433       F  0.45844735  0.18667078  0.87922671    -0.19800
H1434       H  0.45916920  0.15128198  0.89512779     0.15900
F1435       F  0.45934012  0.12642155  0.79836842    -0.23500
H1436       H  0.45839822  0.16172957  0.78287380     0.17700
C1437       C  0.35501183  0.20093784  0.65929614    -0.27600
C1438       C  0.33805985  0.18221729  0.67421183     0.06100
C1439       C  0.33879663  0.18072019  0.70632390     0.25700
C1440       C  0.35613527  0.19778134  0.72310316    -0.12000
C1441       C  0.37319696  0.21640954  0.70810940    -0.26000
C1442       C  0.37241109  0.21788640  0.67599892     0.36500
C1443       C  0.31964520  0.16439613  0.65618737     0.06100
F1444       F  0.32312132  0.16242685  0.72134388    -0.19800
H1445       H  0.35657462  0.19614928  0.74772689     0.15900
F1446       F  0.38827199  0.23595881  0.66079239    -0.23500
H1447       H  0.35465019  0.20251242  0.63465265     0.17700
C1448       C  0.29750454  0.15770138  0.66310191     0.25700
C1449       C  0.28019581  0.14034575  0.64689868    -0.12000
C1450       C  0.28448241  0.12931682  0.62320854    -0.26000
C1451       C  0.30673734  0.13658606  0.61553665     0.36600
C1452       C  0.32410471  0.15397849  0.63192401    -0.27700
F1453       F  0.29260217  0.16818647  0.68527762    -0.19800
H1454       H  0.26331528  0.13553929  0.65299608     0.15900
F1455       F  0.31177586  0.12654189  0.59289285    -0.23500
H1456       H  0.34109171  0.15902670  0.62609774     0.17700
C1457       C  0.19623784  0.02601093  0.02662203    -0.27600
C1458       C  0.20081017  0.04434038  0.00809831     0.06100
C1459       C  0.20281130  0.04274289  0.97626852     0.25700
C1460       C  0.20178461  0.02380908  0.96359488    -0.12000
C1461       C  0.19875580  0.00604318  0.98233981    -0.26000
C1462       C  0.19514708  0.00701094  0.01397365     0.36500
C1463       C  0.20572753  0.06579209  0.02215668     0.06100
F1464       F  0.20639995  0.05980814  0.95747395    -0.19800
H1465       H  0.20434638  0.02352240  0.93919086     0.15900
F1466       F  0.19131803  0.98996302  0.03296584    -0.23500
H1467       H  0.19459671  0.02681342  0.05116783     0.17700
C1468       C  0.19159919  0.06712815  0.04395286     0.25700
C1469       C  0.19691776  0.08772825  0.05674815    -0.12000
C1470       C  0.21646643  0.10734020  0.04821520    -0.26000
C1471       C  0.23082578  0.10570615  0.02697924     0.36600
C1472       C  0.22543121  0.08523094  0.01421600    -0.27700
F1473       F  0.17245604  0.04864593  0.05238120    -0.19800
H1474       H  0.18560005  0.08833414  0.07313359     0.15900
F1475       F  0.25034884  0.12379730  0.01869192    -0.23500
H1476       H  0.23692723  0.08452180  0.99824280     0.17700
C1477       C  0.34017443  0.20236255  0.88296183    -0.27600
C1478       C  0.34204112  0.21286080  0.91115156     0.06100
C1479       C  0.36051702  0.23406119  0.91633493     0.25700
C1480       C  0.37569917  0.24523952  0.89284812    -0.12000
C1481       C  0.37286713  0.23555642  0.86372603    -0.26000
C1482       C  0.35550443  0.21351567  0.85943169     0.36500
C1483       C  0.32334272  0.20340916  0.93325091     0.06100
F1484       F  0.36287031  0.24481149  0.94320082    -0.19800
H1485       H  0.38906235  0.26204870  0.89705372     0.15900
F1486       F  0.35234845  0.20330550  0.83194088    -0.23500
H1487       H  0.32617484  0.18592060  0.87866882     0.17700
C1488       C  0.30227304  0.19920185  0.92386437     0.25700
C1489       C  0.28579304  0.19471973  0.94552528    -0.12000
C1490       C  0.28982027  0.19386594  0.97685620    -0.26000
C1491       C  0.31035590  0.19646218  0.98607170     0.36600
C1492       C  0.32702025  0.20140333  0.96442063    -0.27700
F1493       F  0.29815273  0.20109370  0.89395695    -0.19800
H1494       H  0.27009609  0.19268461  0.93787548     0.15900
F1495       F  0.31495016  0.19595169  0.01617519    -0.23500
H1496       H  0.34312526  0.20456682  0.97211107     0.17700
C1497       C  0.32279103  0.18908573  0.14032280    -0.27600
C1498       C  0.31878764  0.17158082  0.16035356     0.06100
C1499       C  0.29704399  0.15361735  0.16345115     0.25700
C1500       C  0.27970210  0.15329979  0.14709381    -0.12000
C1501       C  0.28359882  0.17071707  0.12697085    -0.26000
C1502       C  0.30542961  0.18863375  0.12355551     0.36500
C1503       C  0.33731607  0.17164944  0.17719483     0.06100
F1504       F  0.29263732  0.13596227  0.18153346    -0.19800
H1505       H  0.26316418  0.13910345  0.14983921     0.15900
F1506       F  0.30998395  0.20585985  0.10449611    -0.23500
H1507       H  0.33940436  0.20318327  0.13773574     0.17700
C1508       C  0.35656920  0.17558349  0.16164627     0.25700
C1509       C  0.37354600  0.17468659  0.17729866    -0.12000
C1510       C  0.37177336  0.16978364  0.20879948    -0.26000
C1511       C  0.35252056  0.16596991  0.22447163     0.36600
C1512       C  0.33553138  0.16697546  0.20875077    -0.27700
F1513       F  0.35871411  0.17960449  0.13106037    -0.19800
H1514       H  0.38807725  0.17763077  0.16451430     0.15900
F1515       F  0.35022395  0.16170061  0.25499210    -0.23500
H1516       H  0.32095506  0.16417959  0.22128662     0.17700
C1517       C  0.37220675  0.35934224  0.77747014    -0.27600
C1518       C  0.36541172  0.36152397  0.74817345     0.06100
C1519       C  0.37054730  0.35217130  0.72311957     0.25700
C1520       C  0.38112714  0.33970176  0.72785114    -0.12000
C1521       C  0.38680729  0.33647844  0.75759153    -0.26000
C1522       C  0.38275517  0.34710975  0.78225638     0.36500
C1523       C  0.35211992  0.37270084  0.74471992     0.06100
F1524       F  0.36432835  0.35410494  0.69435315    -0.19800
H1525       H  0.38405480  0.33186480  0.70844351     0.15900
F1526       F  0.38851838  0.34539138  0.81141163    -0.23500
H1527       H  0.36894268  0.36686205  0.79697484     0.17700
C1528       C  0.33311242  0.36604901  0.76293956     0.25700
C1529       C  0.32080094  0.37680586  0.76034133    -0.12000
C1530       C  0.32692145  0.39409161  0.73917661    -0.26000
C1531       C  0.34599422  0.40091253  0.72109714     0.36600
C1532       C  0.35853900  0.39036642  0.72401068    -0.27700
F1533       F  0.32591860  0.34851218  0.78240605    -0.19800
H1534       H  0.30585435  0.37092044  0.77385770     0.15900
F1535       F  0.35245481  0.41777585  0.70061829    -0.23500
H1536       H  0.37327356  0.39599347  0.71012225     0.17700
C1537       C  0.21572873  0.22634289  0.21038425    -0.27600
C1538       C  0.20919527  0.21124503  0.23501066     0.06100
C1539       C  0.20522060  0.18965563  0.22939216     0.25700
C1540       C  0.20798147  0.18345155  0.19996930    -0.12000
C1541       C  0.21461191  0.19850401  0.17523676    -0.26000
C1542       C  0.21854805  0.22014517  0.18083782     0.36500
C1543       C  0.20526906  0.21752747  0.26606077     0.06100
F1544       F  0.19795322  0.17428228  0.25219206    -0.19800
H1545       H  0.20471105  0.16665437  0.19649918     0.15900
F1546       F  0.22573261  0.23551826  0.15805633    -0.23500
H1547       H  0.21885310  0.24306181  0.21413947     0.17700
C1548       C  0.21542818  0.21490905  0.29242033     0.25700
C1549       C  0.20984024  0.21892239  0.32170441    -0.12000
C1550       C  0.19396592  0.22557571  0.32536362    -0.26000
C1551       C  0.18468494  0.22922590  0.29869120     0.36600
C1552       C  0.19031028  0.22523775  0.26957275    -0.27700
F1553       F  0.23080565  0.20851477  0.28983206    -0.19800
H1554       H  0.21764953  0.21640643  0.34155019     0.15900
F1555       F  0.17002521  0.23659109  0.30053324    -0.23500
H1556       H  0.18243779  0.22759440  0.24965781     0.17700
C1557       C  0.19438778  0.12575058  0.50786520    -0.27600
C1558       C  0.19864217  0.14513536  0.52360301     0.06100
C1559       C  0.20737594  0.14849315  0.55354691     0.25700
C1560       C  0.21252731  0.13326709  0.56670516    -0.12000
C1561       C  0.20947955  0.11471237  0.55014464    -0.26000
C1562       C  0.20006335  0.11084622  0.52078784     0.36500
C1563       C  0.19585933  0.16265055  0.50788822     0.06100
F1564       F  0.21232882  0.16719780  0.56937765    -0.19800
H1565       H  0.22000496  0.13658380  0.58925541     0.15900
F1566       F  0.19666024  0.09281348  0.50447531    -0.23500
H1567       H  0.18722320  0.12245104  0.48513532     0.17700
C1568       C  0.20433719  0.16988447  0.47816443     0.25700
C1569       C  0.20430668  0.18823114  0.46501408    -0.12000
C1570       C  0.19613408  0.19998455  0.48125922    -0.26000
C1571       C  0.18646545  0.19199213  0.51024685     0.36600
C1572       C  0.18625287  0.17346125  0.52326086    -0.27700
F1573       F  0.21408515  0.16023239  0.46255444    -0.19800
H1574       H  0.21187906  0.19400988  0.44273688     0.15900
F1575       F  0.17757255  0.20230778  0.52630097    -0.23500
H1576       H  0.17905214  0.16788985  0.54577131     0.17700
C1577       C  0.17965743  0.32396156  0.54726546    -0.27600
C1578       C  0.18964506  0.32428980  0.57531129     0.06100
C1579       C  0.19530672  0.30795720  0.58140072     0.25700
C1580       C  0.19249532  0.29253826  0.55897674    -0.12000
C1581       C  0.18395267  0.29302919  0.52998006    -0.26000
C1582       C  0.17655046  0.30827546  0.52480294     0.36500
C1583       C  0.19766623  0.34341708  0.59629008     0.06100
F1584       F  0.20538308  0.30814326  0.60811694    -0.19800
H1585       H  0.19812395  0.28091197  0.56388736     0.15900
F1586       F  0.16764194  0.30901339  0.49749073    -0.23500
H1587       H  0.17522035  0.33648958  0.54228208     0.17700
C1588       C  0.21573938  0.36401003  0.58742421     0.25700
C1589       C  0.22799546  0.38012570  0.60944718    -0.12000
C1590       C  0.22216981  0.37609339  0.64052608    -0.26000
C1591       C  0.20268110  0.35636246  0.64891879     0.36600
C1592       C  0.19069327  0.34005939  0.62692088    -0.27700
F1593       F  0.22287738  0.36764317  0.55795162    -0.19800
H1594       H  0.24276392  0.39528064  0.60239874     0.15900
F1595       F  0.19642937  0.35185481  0.67870571    -0.23500
H1596       H  0.17686363  0.32420371  0.63410615     0.17700
C1597       C  0.31807859  0.46233930  0.95742219    -0.27600
C1598       C  0.33053671  0.46198107  0.93222439     0.06100
C1599       C  0.35225395  0.46625991  0.93752521     0.25700
C1600       C  0.36133248  0.47118455  0.96697968    -0.12000
C1601       C  0.34890355  0.47145286  0.99207194    -0.26000
C1602       C  0.32705672  0.46679034  0.98712225     0.36500
C1603       C  0.32093507  0.45701601  0.90062546     0.06100
F1604       F  0.36460150  0.46515406  0.91435420    -0.19800
H1605       H  0.37814400  0.47454695  0.97027935     0.15900
F1606       F  0.31474878  0.46743642  0.01071402    -0.23500
H1607       H  0.30146888  0.45950808  0.95407367     0.17700
C1608       C  0.29922566  0.43938297  0.89530178     0.25700
C1609       C  0.29048379  0.43477044  0.86563424    -0.12000
C1610       C  0.30320535  0.44725168  0.84042836    -0.26000
C1611       C  0.32496015  0.46472538  0.84548855     0.36600
C1612       C  0.33360419  0.46967991  0.87533112    -0.27700
F1613       F  0.28655613  0.42621137  0.91863352    -0.19800
H1614       H  0.27366011  0.42120940  0.86228604     0.15900
F1615       F  0.33748844  0.47759725  0.82184721    -0.23500
H1616       H  0.35017190  0.48366871  0.87870129     0.17700
C1617       C  0.27127011  0.31116406  0.05324150    -0.27600
C1618       C  0.28135283  0.32139325  0.08096670     0.06100
C1619       C  0.27984435  0.30778333  0.10597462     0.25700
C1620       C  0.27009432  0.28469181  0.10232008    -0.12000
C1621       C  0.26179452  0.27476934  0.07372238    -0.26000
C1622       C  0.26164196  0.28820209  0.04953940     0.36500
C1623       C  0.29447950  0.34616152  0.08297408     0.06100
F1624       F  0.28910349  0.31687104  0.13338987    -0.19800
H1625       H  0.27025921  0.27479182  0.12138562     0.15900
F1626       F  0.25277609  0.27928975  0.02186508    -0.23500
H1627       H  0.27138680  0.32108533  0.03401743     0.17700
C1628       C  0.31008985  0.35898412  0.06012732     0.25700
C1629       C  0.32366092  0.38208658  0.06345950    -0.12000
C1630       C  0.32217925  0.39277965  0.08976756    -0.26000
C1631       C  0.30594252  0.38010048  0.11191329     0.36600
C1632       C  0.29221045  0.35713421  0.10839317    -0.27700
F1633       F  0.31320338  0.34905613  0.03544181    -0.19800
H1634       H  0.33617237  0.39140477  0.04630363     0.15900
F1635       F  0.30359167  0.38988684  0.13736936    -0.23500
H1636       H  0.28000025  0.34784440  0.12589471     0.17700
C1637       C  0.43785845  0.33303949  0.54302365    -0.27600
C1638       C  0.45275930  0.34303260  0.56756175     0.06100
C1639       C  0.47339840  0.36205466  0.56163843     0.25700
C1640       C  0.47909864  0.37059245  0.53191196    -0.12000
C1641       C  0.46443729  0.36051815  0.50709674    -0.26000
C1642       C  0.44348392  0.34174419  0.51315420     0.36500
C1643       C  0.44752796  0.33266972  0.59867164     0.06100
F1644       F  0.48853910  0.37189383  0.58437384    -0.19800
H1645       H  0.49532992  0.38507500  0.52833808     0.15900
F1646       F  0.42835743  0.33187653  0.49042386    -0.23500
H1647       H  0.42180294  0.31840509  0.54703558     0.17700
C1648       C  0.44967489  0.34505950  0.62526261     0.25700
C1649       C  0.44615211  0.33520811  0.65440221    -0.12000
C1650       C  0.44051029  0.31283442  0.65773775    -0.26000
C1651       C  0.43797360  0.30040846  0.63089762     0.36600
C1652       C  0.44137066  0.31023906  0.60192735    -0.27700
F1653       F  0.45495257  0.36663866  0.62308009    -0.19800
H1654       H  0.44801188  0.34518283  0.67438714     0.15900
F1655       F  0.43219610  0.27865364  0.63237459    -0.23500
H1656       H  0.43968534  0.30036382  0.58188588     0.17700
C1657       C  0.43627260  0.28887841  0.34611830    -0.27600
C1658       C  0.45212218  0.29080062  0.32454933     0.06100
C1659       C  0.46941036  0.31217509  0.31642785     0.25700
C1660       C  0.47063581  0.33109753  0.32961861    -0.12000
C1661       C  0.45499585  0.32896834  0.35154804    -0.26000
C1662       C  0.43781335  0.30773281  0.35975000     0.36500
C1663       C  0.45029955  0.27038888  0.31085623     0.06100
F1664       F  0.48524820  0.31477584  0.29610285    -0.19800
H1665       H  0.48378324  0.34744079  0.32273077     0.15900
F1666       F  0.42185858  0.30530828  0.37976033    -0.23500
H1667       H  0.42239597  0.27271414  0.35208163     0.17700
C1668       C  0.44555829  0.25201551  0.32951632     0.25700
C1669       C  0.44197317  0.23219609  0.31654041    -0.12000
C1670       C  0.44325594  0.23019732  0.28472333    -0.26000
C1671       C  0.44895038  0.24880569  0.26602581     0.36600
C1672       C  0.45229586  0.26868234  0.27903393    -0.27700
F1673       F  0.44422480  0.25312578  0.36040188    -0.19800
H1674       H  0.43776956  0.21816156  0.33147525     0.15900
F1675       F  0.44992827  0.24739387  0.23513840    -0.23500
H1676       H  0.45561923  0.28246031  0.26408822     0.17700
C1677       C  0.46908014  0.46655868  0.28512164    -0.27600
C1678       C  0.46344175  0.45740481  0.25559416     0.06100
C1679       C  0.46556559  0.43884322  0.24856578     0.25700
C1680       C  0.47151948  0.42868903  0.27137205    -0.12000
C1681       C  0.47560322  0.43689502  0.30149841    -0.26000
C1682       C  0.47511656  0.45644425  0.30792825     0.36500
C1683       C  0.45262509  0.46530615  0.23364090     0.06100
F1684       F  0.46011332  0.42939583  0.22038042    -0.19800
H1685       H  0.47182957  0.41368178  0.26580933     0.15900
F1686       F  0.47854695  0.46468436  0.33680438    -0.23500
H1687       H  0.46770603  0.48094408  0.29093424     0.17700
C1688       C  0.43360250  0.46600103  0.24253060     0.25700
C1689       C  0.42154083  0.47048517  0.22102115    -0.12000
C1690       C  0.42819041  0.47448205  0.19024398    -0.26000
C1691       C  0.44782987  0.47485229  0.18156486     0.36600
C1692       C  0.45985246  0.47020155  0.20312354    -0.27700
F1693       F  0.42578730  0.46086835  0.27161640    -0.19800
H1694       H  0.40649546  0.47007310  0.22829040     0.15900
F1695       F  0.45462206  0.47823503  0.15193261    -0.23500
H1696       H  0.47446520  0.46977542  0.19580561     0.17700
C1697       C  0.30818669  0.29104943  0.44390136    -0.27600
C1698       C  0.31698668  0.30073864  0.41535613     0.06100
C1699       C  0.30214985  0.29736008  0.39118175     0.25700
C1700       C  0.27916662  0.28587101  0.39625575    -0.12000
C1701       C  0.27045958  0.27726139  0.42534751    -0.26000
C1702       C  0.28529971  0.27934404  0.44887991     0.36500
C1703       C  0.34153114  0.31480044  0.41160301     0.06100
F1704       F  0.30979201  0.30515812  0.36262484    -0.19800
H1705       H  0.26823691  0.28434214  0.37760802     0.15900
F1706       F  0.27782800  0.27052522  0.47709520    -0.23500
H1707       H  0.31909813  0.29315482  0.46285828     0.17700
C1708       C  0.35096823  0.33556810  0.39671880     0.25700
C1709       C  0.37394137  0.34858805  0.39334984    -0.12000
C1710       C  0.38813932  0.34172307  0.40565032    -0.26000
C1711       C  0.37896553  0.32147440  0.42159440     0.36600
C1712       C  0.35584237  0.30805996  0.42429379    -0.27700
F1713       F  0.33811421  0.34369841  0.38621260    -0.19800
H1714       H  0.38074359  0.36427745  0.38120379     0.15900
F1715       F  0.39224684  0.31423542  0.43333134    -0.23500
H1716       H  0.34909562  0.29222179  0.43598964     0.17700
C1717       C  0.53065437  0.40254021  0.87680611    -0.27600
C1718       C  0.51748894  0.40201628  0.85201459     0.06100
C1719       C  0.51967947  0.42212462  0.84155038     0.25700
C1720       C  0.53470465  0.44222061  0.85547865    -0.12000
C1721       C  0.54786709  0.44293028  0.88049546    -0.26000
C1722       C  0.54574530  0.42274148  0.89090267     0.36500
C1723       C  0.50010236  0.38047988  0.83888782     0.06100
F1724       F  0.50645776  0.42228001  0.81881941    -0.19800
H1725       H  0.53560301  0.45727321  0.84690679     0.15900
F1726       F  0.55797828  0.42238408  0.91484119    -0.23500
H1727       H  0.52908375  0.38720432  0.88544276     0.17700
C1728       C  0.49797093  0.37668540  0.80706787     0.25700
C1729       C  0.47964434  0.35753495  0.79505559    -0.12000
C1730       C  0.46310302  0.34175468  0.81450964    -0.26000
C1731       C  0.46610710  0.34504584  0.84650633     0.36600
C1732       C  0.48435147  0.36415697  0.85836248    -0.27700
F1733       F  0.51344837  0.39166606  0.78757227    -0.19800
H1734       H  0.47807606  0.35543985  0.77045159     0.15900
F1735       F  0.45105691  0.33023780  0.86659778    -0.23500
H1736       H  0.48565521  0.36666003  0.88291616     0.17700
C1737       C  0.50791702  0.51144804  0.96531944    -0.27600
C1738       C  0.50036459  0.49987443  0.99319865     0.06100
C1739       C  0.51096449  0.48875208  0.00489900     0.25700
C1740       C  0.52883032  0.48952088  0.98923206    -0.12000
C1741       C  0.53672955  0.50147976  0.96160620    -0.26000
C1742       C  0.52594286  0.51243868  0.94978272     0.36500
C1743       C  0.48186221  0.49997608  0.01014656     0.06100
F1744       F  0.50457868  0.47771852  0.03201048    -0.19800
H1745       H  0.53663570  0.48085240  0.99905120     0.15900
F1746       F  0.53273558  0.52419289  0.92326270    -0.23500
H1747       H  0.49980454  0.51979790  0.95544268     0.17700
C1748       C  0.48149603  0.51989154  0.01392152     0.25700
C1749       C  0.46388471  0.51988055  0.02916120    -0.12000
C1750       C  0.44657198  0.50020195  0.04175134    -0.26000
C1751       C  0.44706718  0.48034708  0.03867237     0.36600
C1752       C  0.46442079  0.48022288  0.02268695    -0.27700
F1753       F  0.49849477  0.53953772  0.00364897    -0.19800
H1754       H  0.46401873  0.53543343  0.03172396     0.15900
F1755       F  0.43044219  0.46097092  0.05027486    -0.23500
H1756       H  0.46406909  0.46459718  0.01979312     0.17700
C1757       C  0.40985789  0.53778929  0.66225829    -0.27600
C1758       C  0.39238910  0.52210128  0.64393263     0.06100
C1759       C  0.39559664  0.52299318  0.61191834     0.25700
C1760       C  0.41599014  0.53871164  0.59897720    -0.12000
C1761       C  0.43374273  0.55343605  0.61764320    -0.26000
C1762       C  0.43037991  0.55296771  0.64943910     0.36500
C1763       C  0.37152870  0.50430875  0.65856956     0.06100
F1764       F  0.37953411  0.50792669  0.59320500    -0.19800
H1765       H  0.41826230  0.53862390  0.57446247     0.15900
F1766       F  0.44701380  0.56717444  0.66822734    -0.23500
H1767       H  0.40777642  0.53809834  0.68677307     0.17700
C1768       C  0.37243407  0.49321600  0.68516081     0.25700
C1769       C  0.35300746  0.47608946  0.69824421    -0.12000
C1770       C  0.33225014  0.46906394  0.68478036    -0.26000
C1771       C  0.33116237  0.48013607  0.65841412     0.36600
C1772       C  0.35057575  0.49779219  0.64577884    -0.27700
F1773       F  0.39217382  0.49802501  0.69769687    -0.19800
H1774       H  0.35432768  0.46748342  0.71813108     0.15900
F1775       F  0.31135133  0.47390515  0.64488632    -0.23500
H1776       H  0.34919904  0.50625586  0.62579905     0.17700
C1777       C  0.55775515  0.75062406  0.67348053    -0.27600
C1778       C  0.54120362  0.73027842  0.68546200     0.06100
C1779       C  0.52867281  0.73048860  0.71058995     0.25700
C1780       C  0.53275281  0.75073999  0.72335077    -0.12000
C1781       C  0.54946621  0.77120807  0.71143689    -0.26000
C1782       C  0.56191353  0.77079148  0.68612978     0.36500
C1783       C  0.53811658  0.70913639  0.67239258     0.06100
F1784       F  0.51230182  0.71112248  0.72256147    -0.19800
H1785       H  0.52286028  0.75036319  0.74266978     0.15900
F1786       F  0.57841692  0.78983018  0.67357348    -0.23500
H1787       H  0.56790763  0.75091944  0.65453380     0.17700
C1788       C  0.53601971  0.70529600  0.64058858     0.25700
C1789       C  0.53556540  0.68647994  0.62826776    -0.12000
C1790       C  0.53737029  0.67114028  0.64730559    -0.26000
C1791       C  0.53867176  0.67465628  0.67932720     0.36600
C1792       C  0.53902144  0.69341054  0.69155493    -0.27700
F1793       F  0.53461157  0.71988059  0.62134777    -0.19800
H1794       H  0.53441553  0.68427241  0.60367038     0.15900
F1795       F  0.54002894  0.66024851  0.69901113    -0.23500
H1796       H  0.54081816  0.69605925  0.71606607     0.17700
C1797       C  0.48023118  0.47662474  0.47181750    -0.27600
C1798       C  0.49833766  0.49066228  0.49060640     0.06100
C1799       C  0.51680221  0.48765060  0.49158260     0.25700
C1800       C  0.51701279  0.47089701  0.47424117    -0.12000
C1801       C  0.49898665  0.45698029  0.45527789    -0.26000
C1802       C  0.48057127  0.46005758  0.45412429     0.36500
C1803       C  0.49808066  0.50879126  0.50822873     0.06100
F1804       F  0.53490912  0.50128482  0.50860589    -0.19800
H1805       H  0.53146335  0.46895341  0.47540039     0.15900
F1806       F  0.46260897  0.44661768  0.43673055    -0.23500
H1807       H  0.46567801  0.47840042  0.47100708     0.17700
C1808       C  0.49224013  0.52312709  0.49368558     0.25700
C1809       C  0.49173432  0.54001966  0.51008525    -0.12000
C1810       C  0.49709369  0.54324403  0.54146605    -0.26000
C1811       C  0.50321629  0.52902954  0.55607323     0.36600
C1812       C  0.50364909  0.51196050  0.53953220    -0.27700
F1813       F  0.48746911  0.52115043  0.46331524    -0.19800
H1814       H  0.48721091  0.55073515  0.49790253     0.15900
F1815       F  0.50839128  0.53128969  0.58631097    -0.23500
H1816       H  0.50803265  0.50098993  0.55130417     0.17700
C1817       C  0.51317562  0.53192264  0.71782147    -0.27600
C1818       C  0.52289167  0.54310523  0.74520551     0.06100
C1819       C  0.52722266  0.56494008  0.74926475     0.25700
C1820       C  0.52359399  0.57600934  0.72532137    -0.12000
C1821       C  0.51545614  0.56549248  0.69695143    -0.26000
C1822       C  0.50912588  0.54288770  0.69394575     0.36500
C1823       C  0.53188626  0.53370350  0.76745576     0.06100
F1824       F  0.53682595  0.57624583  0.77541930    -0.19800
H1825       H  0.52832710  0.59327805  0.72851364     0.15900
F1826       F  0.50048188  0.53182464  0.66734653    -0.23500
H1827       H  0.50968017  0.51503783  0.71446378     0.17700
C1828       C  0.52569692  0.53128209  0.79840514     0.25700
C1829       C  0.53796316  0.52737427  0.82029010    -0.12000
C1830       C  0.55683679  0.52636040  0.81166807    -0.26000
C1831       C  0.56210195  0.52727234  0.78046279     0.36600
C1832       C  0.54954122  0.53072443  0.75851935    -0.27700
F1833       F  0.50861216  0.53397042  0.80760140    -0.19800
H1834       H  0.53358744  0.52665294  0.84422384     0.15900
F1835       F  0.57980946  0.52562664  0.77129887    -0.23500
H1836       H  0.55453717  0.53260183  0.73471902     0.17700
C1837       C  0.54290089  0.69248257  0.39353598    -0.27600
C1838       C  0.54262659  0.67238315  0.39791433     0.06100
C1839       C  0.54568403  0.66201208  0.37210891     0.25700
C1840       C  0.54934940  0.67187748  0.34286725    -0.12000
C1841       C  0.54988189  0.69221016  0.33856795    -0.26000
C1842       C  0.54636451  0.70224526  0.36448881     0.36500
C1843       C  0.53805899  0.66200628  0.42915517     0.06100
F1844       F  0.54558577  0.64254958  0.37523479    -0.19800
H1845       H  0.55198167  0.66367888  0.32364161     0.15900
F1846       F  0.54600725  0.72151350  0.36198580    -0.23500
H1847       H  0.54000835  0.70054116  0.41270979     0.17700
C1848       C  0.54953391  0.67426970  0.45538984     0.25700
C1849       C  0.54419726  0.66443897  0.48472350    -0.12000
C1850       C  0.52712217  0.64223450  0.48869536    -0.26000
C1851       C  0.51565288  0.63010887  0.46221153     0.36600
C1852       C  0.52116792  0.63987011  0.43309486    -0.27700
F1853       F  0.56611804  0.69572191  0.45263330    -0.19800
H1854       H  0.55338574  0.67426707  0.50433716     0.15900
F1855       F  0.49881986  0.60870103  0.46414931    -0.23500
H1856       H  0.51175508  0.63015722  0.41352132     0.17700
C1857       C  0.50585863  0.64120006  0.13849806    -0.27600
C1858       C  0.49027114  0.62509367  0.15844157     0.06100
C1859       C  0.49306936  0.62918148  0.19020381     0.25700
C1860       C  0.51144790  0.64856156  0.20161136    -0.12000
C1861       C  0.52751584  0.66435926  0.18169341    -0.26000
C1862       C  0.52417784  0.66057235  0.14979015     0.36500
C1863       C  0.47224379  0.60345175  0.14611184     0.06100
F1864       F  0.47810316  0.61431621  0.21030969    -0.19800
H1865       H  0.51335964  0.65089689  0.22615856     0.15900
F1866       F  0.53895176  0.67516914  0.12924190    -0.23500
H1867       H  0.50434698  0.63840756  0.11401267     0.17700
C1868       C  0.45919026  0.60237808  0.12076375     0.25700
C1869       C  0.44319661  0.58170900  0.10867395    -0.12000
C1870       C  0.43988865  0.56164638  0.12147564    -0.26000
C1871       C  0.45284135  0.56289890  0.14713735     0.36600
C1872       C  0.46876476  0.58346683  0.15902809    -0.27700
F1873       F  0.46176303  0.62128861  0.10779744    -0.19800
H1874       H  0.43357302  0.58145277  0.08904332     0.15900
F1875       F  0.45049558  0.54427077  0.16073835    -0.23500
H1876       H  0.47883283  0.58373267  0.17810169     0.17700
C1877       C  0.52130457  0.79812267  0.20751813    -0.27600
C1878       C  0.53296562  0.81085132  0.18174586     0.06100
C1879       C  0.55029660  0.80838328  0.16986556     0.25700
C1880       C  0.55597257  0.79383196  0.18355091    -0.12000
C1881       C  0.54476673  0.78136057  0.20972801    -0.26000
C1882       C  0.52703145  0.78341643  0.22136686     0.36500
C1883       C  0.52891450  0.82841747  0.16917650     0.06100
F1884       F  0.56274232  0.82103624  0.14601225    -0.19800
H1885       H  0.56972330  0.79284114  0.17382693     0.15900
F1886       F  0.51540590  0.77151985  0.24620145    -0.23500
H1887       H  0.50793473  0.79981427  0.21716896     0.17700
C1888       C  0.52747729  0.83103323  0.13740639     0.25700
C1889       C  0.52811443  0.85013940  0.12575453    -0.12000
C1890       C  0.52990684  0.86692844  0.14548939    -0.26000
C1891       C  0.52959124  0.86336717  0.17741380     0.36600
C1892       C  0.52912988  0.84436139  0.18895829    -0.27700
F1893       F  0.52602402  0.81536717  0.11755915    -0.19800
H1894       H  0.52791153  0.85207585  0.10116962     0.15900
F1895       F  0.53059112  0.87858944  0.19769950    -0.23500
H1896       H  0.53013999  0.84270554  0.21348551     0.17700
C1897       C  0.66675613  0.85030002  0.36787305    -0.27600
C1898       C  0.67122591  0.84425747  0.33914407     0.06100
C1899       C  0.69302790  0.85612616  0.32777712     0.25700
C1900       C  0.70984949  0.87341192  0.34481169    -0.12000
C1901       C  0.70552039  0.87942933  0.37369372    -0.26000
C1902       C  0.68363376  0.86763002  0.38501618     0.36500
C1903       C  0.65319034  0.82562885  0.32123767     0.06100
F1904       F  0.69828984  0.85062864  0.30052741    -0.19800
H1905       H  0.72642951  0.88204320  0.33526758     0.15900
F1906       F  0.67849950  0.87256414  0.41275795    -0.23500
H1907       H  0.65006330  0.84164577  0.37703606     0.17700
C1908       C  0.63859070  0.80514134  0.33533166     0.25700
C1909       C  0.62117971  0.78809703  0.31868804    -0.12000
C1910       C  0.61822926  0.79082240  0.28748704    -0.26000
C1911       C  0.63317355  0.81096287  0.27303624     0.36600
C1912       C  0.65032891  0.82824358  0.28985770    -0.27700
F1913       F  0.64134791  0.80143153  0.36510248    -0.19800
H1914       H  0.60997862  0.77261598  0.33018883     0.15900
F1915       F  0.63055673  0.81431992  0.24306428    -0.23500
H1916       H  0.66111838  0.84388681  0.27845919     0.17700
C1917       C  0.79634951  0.97988886  0.97469568    -0.27600
C1918       C  0.79489122  0.96303679  0.99389227     0.06100
C1919       C  0.79614689  0.96628766  0.02578914     0.25700
C1920       C  0.79679621  0.98514720  0.03816672    -0.12000
C1921       C  0.79640222  0.00121454  0.01898770    -0.26000
C1922       C  0.79716358  0.99881346  0.98695927     0.36500
C1923       C  0.78970697  0.94134245  0.98052605     0.06100
F1924       F  0.79602519  0.95086429  0.04501038    -0.19800
H1925       H  0.79666289  0.98666602  0.06282290     0.15900
F1926       F  0.79748910  0.01409324  0.96725048    -0.23500
H1927       H  0.79559381  0.97783290  0.95006789     0.17700
C1928       C  0.77127247  0.92160836  0.99109093     0.25700
C1929       C  0.76533361  0.90132239  0.97727249    -0.12000
C1930       C  0.77740336  0.90008225  0.95228729    -0.26000
C1931       C  0.79586132  0.91991891  0.94155098     0.36600
C1932       C  0.80186337  0.94031534  0.95556893    -0.27700
F1933       F  0.75830217  0.92201407  0.01393643    -0.19800
H1934       H  0.75089707  0.88654702  0.98599768     0.15900
F1935       F  0.80806030  0.91973916  0.91749698    -0.23500
H1936       H  0.81597544  0.95537841  0.94683238     0.17700
C1937       C  0.69863292  0.69729300  0.89414314    -0.27600
C1938       C  0.69998899  0.68427956  0.91782860     0.06100
C1939       C  0.71359421  0.69496740  0.94315246     0.25700
C1940       C  0.72437672  0.71813130  0.94566879    -0.12000
C1941       C  0.72199767  0.73115401  0.92289183    -0.26000
C1942       C  0.70960329  0.72053967  0.89649977     0.36500
C1943       C  0.68539128  0.65971694  0.91756611     0.06100
F1944       F  0.71517765  0.68293516  0.96650799    -0.19800
H1945       H  0.73391427  0.72584385  0.96616642     0.15900
F1946       F  0.70670156  0.73238159  0.87407465    -0.23500
H1947       H  0.68831199  0.68933439  0.87432658     0.17700
C1948       C  0.66227587  0.65037308  0.91545948     0.25700
C1949       C  0.64833407  0.62731591  0.91481640    -0.12000
C1950       C  0.65707611  0.61308346  0.91642297    -0.26000
C1951       C  0.68015332  0.62227548  0.91906389     0.36600
C1952       C  0.69420265  0.64548196  0.91991671    -0.27700
F1953       F  0.65316569  0.66359631  0.91391577    -0.19800
H1954       H  0.63063114  0.62050456  0.91207882     0.15900
F1955       F  0.68912402  0.60890507  0.91903490    -0.23500
H1956       H  0.71197847  0.65236559  0.92145357     0.17700
C1957       C  0.66517522  0.81075386  0.03612221    -0.27600
C1958       C  0.66806759  0.80689135  0.06689888     0.06100
C1959       C  0.68823224  0.80860627  0.07593918     0.25700
C1960       C  0.70454996  0.81266160  0.05422272    -0.12000
C1961       C  0.70122745  0.81533806  0.02315414    -0.26000
C1962       C  0.68167552  0.81516781  0.01441129     0.36500
C1963       C  0.64899628  0.79734930  0.08833273     0.06100
F1964       F  0.69138378  0.80441532  0.10532348    -0.19800
H1965       H  0.71943182  0.81273181  0.06153422     0.15900
F1966       F  0.67766070  0.81738410  0.98456624    -0.23500
H1967       H  0.64967183  0.80928943  0.02867604     0.17700
C1968       C  0.65066986  0.80633057  0.11767716     0.25700
C1969       C  0.63455657  0.79421015  0.13991704    -0.12000
C1970       C  0.61671427  0.77285244  0.13332929    -0.26000
C1971       C  0.61411650  0.76480581  0.10313058     0.36600
C1972       C  0.63007688  0.77703656  0.08090993    -0.27700
F1973       F  0.66845685  0.82627118  0.12526202    -0.19800
H1974       H  0.63685877  0.80092800  0.16283891     0.15900
F1975       F  0.59680822  0.74457889  0.09537933    -0.23500
H1976       H  0.62843132  0.76985395  0.05840320     0.17700
C1977       C  0.68779553  0.83653755  0.82494826    -0.27600
C1978       C  0.66942956  0.83440004  0.84114699     0.06100
C1979       C  0.66924402  0.83270314  0.87332564     0.25700
C1980       C  0.68718476  0.83344952  0.88877909    -0.12000
C1981       C  0.70581328  0.83629545  0.87258952    -0.26000
C1982       C  0.70589641  0.83769318  0.84042306     0.36500
C1983       C  0.65064710  0.83404051  0.82442008     0.06100
F1984       F  0.65209669  0.83112708  0.88998677    -0.19800
H1985       H  0.68677674  0.83244067  0.91354485     0.15900
F1986       F  0.72330738  0.83980024  0.82383887    -0.23500
H1987       H  0.68812317  0.83724913  0.80017524     0.17700
C1988       C  0.65441709  0.84946563  0.80092049     0.25700
C1989       C  0.63656176  0.84894925  0.78546970    -0.12000
C1990       C  0.61456315  0.83325789  0.79330107    -0.26000
C1991       C  0.61085328  0.81787638  0.81694870     0.36600
C1992       C  0.62869774  0.81820533  0.83200217    -0.27700
F1993       F  0.67535517  0.86542762  0.79334798    -0.19800
H1994       H  0.63999795  0.86102416  0.76751341     0.15900
F1995       F  0.59000151  0.80215604  0.82531783    -0.23500
H1996       H  0.62529841  0.80583607  0.84950174     0.17700
C1997       C  0.77485269  0.79017897  0.70568302    -0.27600
C1998       C  0.78748786  0.79184745  0.73182025     0.06100
C1999       C  0.80623494  0.78951455  0.72808466     0.25700
C2000       C  0.81205118  0.78552250  0.69917043    -0.12000
C2001       C  0.79954317  0.78389242  0.67291340    -0.26000
C2002       C  0.78081534  0.78637057  0.67653202     0.36500
C2003       C  0.78163685  0.79669374  0.76269599     0.06100
F2004       F  0.81946477  0.79180101  0.75226472    -0.19800
H2005       H  0.82664351  0.78387317  0.69743723     0.15900
F2006       F  0.76820802  0.78508848  0.65206944    -0.23500
H2007       H  0.76021326  0.79170673  0.70783522     0.17700
C2008       C  0.77670416  0.81380203  0.76659950     0.25700
C2009       C  0.77257735  0.81913814  0.79580466    -0.12000
C2010       C  0.77331322  0.80770184  0.82208636    -0.26000
C2011       C  0.77787299  0.79029606  0.81814923     0.36600
C2012       C  0.78188342  0.78486508  0.78880218    -0.27700
F2013       F  0.77671776  0.82603867  0.74233774    -0.19800
H2014       H  0.76904830  0.83256585  0.79777155     0.15900
F2015       F  0.77872923  0.77864691  0.84255995    -0.23500
H2016       H  0.78528202  0.77136973  0.78650132     0.17700
C2017       C  0.79153731  0.82580888  0.47381200    -0.27600
C2018       C  0.79303583  0.84220503  0.49392263     0.06100
C2019       C  0.79661356  0.84034530  0.52524736     0.25700
C2020       C  0.79765450  0.82192507  0.53623695    -0.12000
C2021       C  0.79511759  0.80491095  0.51629795    -0.26000
C2022       C  0.79257892  0.80742004  0.48468716     0.36500
C2023       C  0.78876211  0.85986306  0.48230557     0.06100
F2024       F  0.79879023  0.85618921  0.54531527    -0.19800
H2025       H  0.79982454  0.82070499  0.56057861     0.15900
F2026       F  0.79007258  0.79167309  0.46421842    -0.23500
H2027       H  0.78852806  0.82670022  0.44965730     0.17700
C2028       C  0.79929490  0.87220574  0.45577886     0.25700
C2029       C  0.79308961  0.88682717  0.44313194    -0.12000
C2030       C  0.77619419  0.88943029  0.45654717    -0.26000
C2031       C  0.76629325  0.87765342  0.48384464     0.36600
C2032       C  0.77252499  0.86308195  0.49639500    -0.27700
F2033       F  0.81552021  0.87003473  0.44196830    -0.19800
H2034       H  0.80125902  0.89578535  0.42242347     0.15900
F2035       F  0.75028432  0.87983205  0.49833850    -0.23500
H2036       H  0.76401886  0.85365540  0.51666941     0.17700
C2037       C  0.63700414  0.69564671  0.57023738    -0.27600
C2038       C  0.65192086  0.68907986  0.58099746     0.06100
C2039       C  0.64328665  0.66793370  0.59443447     0.25700
C2040       C  0.62040738  0.65396300  0.59760103    -0.12000
C2041       C  0.60547339  0.66052877  0.58723836    -0.26000
C2042       C  0.61394269  0.68151045  0.57334494     0.36500
C2043       C  0.67640009  0.70383992  0.57775972     0.06100
F2044       F  0.65698337  0.66059308  0.60417165    -0.19800
H2045       H  0.61428704  0.63790891  0.60849780     0.15900
F2046       F  0.60005049  0.68879213  0.56435102    -0.23500
H2047       H  0.64324503  0.71192861  0.56003930     0.17700
C2048       C  0.68591559  0.71280094  0.54915403     0.25700
C2049       C  0.70900173  0.72434526  0.54556454    -0.12000
C2050       C  0.72321364  0.72722431  0.57034031    -0.26000
C2051       C  0.71368477  0.71902421  0.59925140     0.36600
C2052       C  0.69055208  0.70756383  0.60285599    -0.27700
F2053       F  0.67290033  0.70919936  0.52421148    -0.19800
H2054       H  0.71573845  0.73040352  0.52296049     0.15900
F2055       F  0.72656319  0.72081884  0.62362686    -0.23500
H2056       H  0.68361863  0.70094939  0.62519557     0.17700
C2057       C  0.66812262  0.55754332  0.04499564    -0.27600
C2058       C  0.65524048  0.54845049  0.07158406     0.06100
C2059       C  0.63231979  0.53364271  0.06827279     0.25700
C2060       C  0.62282282  0.52744251  0.03912848    -0.12000
C2061       C  0.63584313  0.53582272  0.01250317    -0.26000
C2062       C  0.65864745  0.55124655  0.01579823     0.36500
C2063       C  0.66600835  0.55305165  0.10236047     0.06100
F2064       F  0.61918062  0.52431099  0.09314621    -0.19800
H2065       H  0.60517834  0.51577490  0.03747428     0.15900
F2066       F  0.67198622  0.55977411  0.99092119    -0.23500
H2067       H  0.68572739  0.56932316  0.04680739     0.17700
C2068       C  0.68526688  0.55169273  0.10678745     0.25700
C2069       C  0.69468749  0.55464761  0.13583445    -0.12000
C2070       C  0.68527044  0.55900195  0.16149260    -0.26000
C2071       C  0.66615524  0.56072065  0.15708822     0.36600
C2072       C  0.65670345  0.55780216  0.12780746    -0.27700
F2073       F  0.69466344  0.54670734  0.08321372    -0.19800
H2074       H  0.70941691  0.55328236  0.13816705     0.15900
F2075       F  0.65669024  0.56542298  0.18085371    -0.23500
H2076       H  0.64210289  0.55933711  0.12501316     0.17700
C2077       C  0.59958668  0.47212035  0.38284024    -0.27600
C2078       C  0.60068869  0.48158314  0.35391718     0.06100
C2079       C  0.58118604  0.47332935  0.33646618     0.25700
C2080       C  0.56102001  0.45649372  0.34802073    -0.12000
C2081       C  0.55961174  0.44745257  0.37735858    -0.26000
C2082       C  0.57927824  0.45519037  0.39451947     0.36500
C2083       C  0.62169750  0.50085153  0.34248558     0.06100
F2084       F  0.58134130  0.48238695  0.30883591    -0.19800
H2085       H  0.54628088  0.45098120  0.33415241     0.15900
F2086       F  0.57881399  0.44719371  0.42304569    -0.23500
H2087       H  0.61442900  0.47811725  0.39662510     0.17700
C2088       C  0.63371594  0.51997307  0.36055242     0.25700
C2089       C  0.65186192  0.53901684  0.34825154    -0.12000
C2090       C  0.65845667  0.53954121  0.31763880    -0.26000
C2091       C  0.64696951  0.52001877  0.29999149     0.36600
C2092       C  0.62884843  0.50095110  0.31238402    -0.27700
F2093       F  0.62723521  0.52071587  0.38960041    -0.19800
H2094       H  0.66037761  0.55361321  0.36261559     0.15900
F2095       F  0.65296972  0.51930949  0.27065617    -0.23500
H2096       H  0.62007720  0.48628720  0.29819143     0.17700
C2097       C  0.76736036  0.63696637  0.41954902    -0.27600
C2098       C  0.78767660  0.65598602  0.41245275     0.06100
C2099       C  0.79714497  0.65784974  0.38347748     0.25700
C2100       C  0.78553196  0.64179678  0.36109641    -0.12000
C2101       C  0.76418170  0.62386427  0.36718863    -0.26000
C2102       C  0.75560106  0.62100799  0.39709960     0.36500
C2103       C  0.79695790  0.67513477  0.43352959     0.06100
F2104       F  0.81702267  0.67588052  0.37632244    -0.19800
H2105       H  0.79258546  0.64428574  0.33835854     0.15900
F2106       F  0.73540223  0.60341761  0.40425860    -0.23500
H2107       H  0.75989719  0.63524394  0.44186861     0.17700
C2108       C  0.79769023  0.69487384  0.42445449     0.25700
C2109       C  0.80331109  0.71194010  0.44548478    -0.12000
C2110       C  0.80836981  0.70971435  0.47594516    -0.26000
C2111       C  0.80872651  0.69035420  0.48464708     0.36600
C2112       C  0.80280411  0.67311028  0.46359117    -0.27700
F2113       F  0.79146233  0.69702510  0.39577513    -0.19800
H2114       H  0.80284872  0.72659123  0.43817692     0.15900
F2115       F  0.81337277  0.68742621  0.51388692    -0.23500
H2116       H  0.80213474  0.65790292  0.47094999     0.17700
C2117       C  0.62606140  0.65985764  0.26816967    -0.27600
C2118       C  0.63190515  0.65147434  0.24280198     0.06100
C2119       C  0.62495506  0.65364550  0.21354379     0.25700
C2120       C  0.61275690  0.66438035  0.20970664    -0.12000
C2121       C  0.60731911  0.67340458  0.23490791    -0.26000
C2122       C  0.61382828  0.67068063  0.26437192     0.36500
C2123       C  0.64589732  0.64119357  0.24681983     0.06100
F2124       F  0.63091332  0.64637001  0.18847629    -0.19800
H2125       H  0.60813006  0.66617254  0.18665083     0.15900
F2126       F  0.60921904  0.67920907  0.28933776    -0.23500
H2127       H  0.63127424  0.65826889  0.29094697     0.17700
C2128       C  0.66697414  0.65332009  0.26029330     0.25700
C2129       C  0.67981004  0.64335107  0.26513131    -0.12000
C2130       C  0.67203078  0.62121723  0.25632027    -0.26000
C2131       C  0.65120208  0.60922540  0.24205467     0.36600
C2132       C  0.63826424  0.61920787  0.23730315    -0.27700
F2133       F  0.67519074  0.67486056  0.26860056    -0.19800
H2134       H  0.69585258  0.65289417  0.27608897     0.15900
F2135       F  0.64285387  0.58756306  0.23437909    -0.23500
H2136       H  0.62201589  0.60960077  0.22694498     0.17700
C2137       C  0.82885393  0.54683771  0.36199298    -0.27600
C2138       C  0.82084435  0.53736048  0.33301991     0.06100
C2139       C  0.83029581  0.52601324  0.31863634     0.25700
C2140       C  0.84807381  0.52521808  0.33228397    -0.12000
C2141       C  0.85666002  0.53546696  0.36069575    -0.26000
C2142       C  0.84645975  0.54582184  0.37582097     0.36500
C2143       C  0.80380156  0.54077470  0.31726193     0.06100
F2144       F  0.82252806  0.51591689  0.29120142    -0.19800
H2145       H  0.85550568  0.51699610  0.32024272     0.15900
F2146       F  0.85447549  0.55635835  0.40293536    -0.23500
H2147       H  0.82212203  0.55595243  0.37339837     0.17700
C2148       C  0.78480207  0.53761875  0.33293425     0.25700
C2149       C  0.77030625  0.54344479  0.31912234    -0.12000
C2150       C  0.77410695  0.55196275  0.28917664    -0.26000
C2151       C  0.79249568  0.55422126  0.27293698     0.36600
C2152       C  0.80727746  0.54882600  0.28696906    -0.27700
F2153       F  0.78029672  0.52897946  0.36166573    -0.19800
H2154       H  0.75612438  0.54145610  0.33192648     0.15900
F2155       F  0.79692055  0.56295294  0.24425353    -0.23500
H2156       H  0.82193935  0.55177426  0.27453520     0.17700
C2157       C  0.18935972  0.73163471  0.21405040    -0.27600
C2158       C  0.17683943  0.73155027  0.18871683     0.06100
C2159       C  0.18175036  0.75193658  0.17548836     0.25700
C2160       C  0.19862732  0.77189819  0.18750363    -0.12000
C2161       C  0.21103867  0.77221992  0.21322312    -0.26000
C2162       C  0.20638020  0.75172291  0.22616675     0.36500
C2163       C  0.15792090  0.71039204  0.17711412     0.06100
F2164       F  0.16952853  0.75267366  0.15177260    -0.19800
H2165       H  0.20155793  0.78723144  0.17688990     0.15900
F2166       F  0.21789828  0.75100138  0.25077185    -0.23500
H2167       H  0.18582668  0.71607976  0.22458980     0.17700
C2168       C  0.15595586  0.70491197  0.14585186     0.25700
C2169       C  0.13721226  0.68575807  0.13494672    -0.12000
C2170       C  0.11992587  0.67161072  0.15487721    -0.26000
C2171       C  0.12219360  0.67695331  0.18635060     0.36600
C2172       C  0.14103400  0.69606271  0.19721730    -0.27700
F2173       F  0.17219380  0.71807471  0.12580223    -0.19800
H2174       H  0.13614436  0.68220369  0.11068126     0.15900
F2175       F  0.10609460  0.66403660  0.20670447    -0.23500
H2176       H  0.14214068  0.70004222  0.22134904     0.17700
C2177       C  0.99652410  0.52922271  0.21351982    -0.27600
C2178       C  0.99824926  0.53770553  0.24311652     0.06100
C2179       C  0.01744751  0.55754270  0.25143819     0.25700
C2180       C  0.03395902  0.56954416  0.22982218    -0.12000
C2181       C  0.03179269  0.56180529  0.19965711    -0.26000
C2182       C  0.01333997  0.54098668  0.19198323     0.36500
C2183       C  0.97909466  0.52794420  0.26414991     0.06100
F2184       F  0.01941803  0.56617613  0.27987564    -0.19800
H2185       H  0.04803653  0.58540249  0.23637071     0.15900
F2186       F  0.01071761  0.53278424  0.16315027    -0.23500
H2187       H  0.98177012  0.51395999  0.20679434     0.17700
C2188       C  0.96072838  0.53041711  0.25776231     0.25700
C2189       C  0.94536650  0.52679705  0.28075306    -0.12000
C2190       C  0.94795777  0.52048721  0.31042979    -0.26000
C2191       C  0.96522554  0.51595843  0.31585274     0.36600
C2192       C  0.98078660  0.51991796  0.29290657    -0.27700
F2193       F  0.95875260  0.53827562  0.23015313    -0.19800
H2194       H  0.93209991  0.53012763  0.27571846     0.15900
F2195       F  0.96814938  0.50940230  0.34390321    -0.23500
H2196       H  0.99489681  0.51795345  0.29810642     0.17700
C2197       C  0.82192745  0.80971056  0.02068196    -0.27600
C2198       C  0.83240346  0.80034455  0.00397630     0.06100
C2199       C  0.82565327  0.79374007  0.97350877     0.25700
C2200       C  0.80811328  0.79541551  0.96074874    -0.12000
C2201       C  0.79669183  0.80348280  0.97807282    -0.26000
C2202       C  0.80424386  0.81124340  0.00798895     0.36500
C2203       C  0.84869061  0.79545295  0.01915995     0.06100
F2204       F  0.83565188  0.78508957  0.95625543    -0.19800
H2205       H  0.80278153  0.78934810  0.93769889     0.15900
F2206       F  0.79417791  0.81976444  0.02534896    -0.23500
H2207       H  0.82672053  0.81487066  0.04416190     0.17700
C2208       C  0.86678034  0.81150151  0.03642432     0.25700
C2209       C  0.88155912  0.80606903  0.05074908    -0.12000
C2210       C  0.87862220  0.78459183  0.04800925    -0.26000
C2211       C  0.86019901  0.76852602  0.03119017     0.36600
C2212       C  0.84554981  0.77394203  0.01711149    -0.27700
F2213       F  0.87050834  0.83255835  0.03876010    -0.19800
H2214       H  0.89554361  0.81877699  0.06342756     0.15900
F2215       F  0.85596702  0.74728527  0.02871561    -0.23500
H2216       H  0.83142875  0.76107771  0.00480315     0.17700
C2217       C  0.06097813  0.87089406  0.96050854    -0.27600
C2218       C  0.06009035  0.85874191  0.98682659     0.06100
C2219       C  0.08028347  0.86269294  0.99977337     0.25700
C2220       C  0.10061345  0.87833170  0.98673645    -0.12000
C2221       C  0.10153297  0.89018468  0.96003295    -0.26000
C2222       C  0.08132362  0.88627750  0.94713034     0.36500
C2223       C  0.03819943  0.84088844  0.99907006     0.06100
F2224       F  0.08049739  0.85056695  0.02402235    -0.19800
H2225       H  0.11571598  0.88066117  0.99722697     0.15900
F2226       F  0.08105028  0.89682198  0.92110207    -0.23500
H2227       H  0.04579190  0.86826191  0.94993145     0.17700
C2228       C  0.03375776  0.83775420  0.03075485     0.25700
C2229       C  0.01410834  0.81942490  0.04163020    -0.12000
C2230       C  0.99816036  0.80397040  0.02129250    -0.26000
C2231       C  0.00185655  0.80811973  0.98955835     0.36600
C2232       C  0.02166845  0.82618432  0.97874767    -0.27700
F2233       F  0.04833654  0.85241468  0.05134176    -0.19800
H2234       H  0.01164971  0.81708960  0.06613023     0.15900
F2235       F  0.98661575  0.79448376  0.96874091    -0.23500
H2236       H  0.02436050  0.82821064  0.95425925     0.17700
C2237       C  0.81681796  0.66299440  0.21008053    -0.27600
C2238       C  0.81715315  0.66230702  0.17788448     0.06100
C2239       C  0.80015511  0.64372236  0.16275772     0.25700
C2240       C  0.78364518  0.62601879  0.17950048    -0.12000
C2241       C  0.78348207  0.62638608  0.21174564    -0.26000
C2242       C  0.80010273  0.64530907  0.22691669     0.36500
C2243       C  0.83539088  0.68074451  0.16022371     0.06100
F2244       F  0.79928676  0.64277497  0.13171035    -0.19800
H2245       H  0.77086737  0.61193264  0.16703173     0.15900
F2246       F  0.80065015  0.64649979  0.25793728    -0.23500
H2247       H  0.82981966  0.67707048  0.22228248     0.17700
C2248       C  0.84185732  0.70302270  0.16627331     0.25700
C2249       C  0.85931622  0.72022285  0.14996917    -0.12000
C2250       C  0.87065456  0.71568912  0.12702901    -0.26000
C2251       C  0.86395418  0.69333475  0.12065426     0.36600
C2252       C  0.84659201  0.67612047  0.13722654    -0.27700
F2253       F  0.83096316  0.70818721  0.18747311    -0.19800
H2254       H  0.86380255  0.73719367  0.15517448     0.15900
F2255       F  0.87441282  0.68804339  0.09892831    -0.23500
H2256       H  0.84209323  0.65909886  0.13236601     0.17700
C2257       C  0.01075525  0.70834309  0.05594487    -0.27600
C2258       C  0.01181161  0.70056696  0.08510897     0.06100
C2259       C  0.00227502  0.70571324  0.10996061     0.25700
C2260       C  0.99113320  0.71762867  0.10525356    -0.12000
C2261       C  0.98915965  0.72450742  0.07568853    -0.26000
C2262       C  0.99959525  0.72005527  0.05114152     0.36500
C2263       C  0.02193807  0.68624503  0.08875487     0.06100
F2264       F  0.00360659  0.69910199  0.13875417    -0.19800
H2265       H  0.98340578  0.72078374  0.12457951     0.15900
F2266       F  0.99868721  0.72655508  0.02210071    -0.23500
H2267       H  0.01796730  0.70464701  0.03649125     0.17700
C2268       C  0.00987215  0.66511676  0.10237519     0.25700
C2269       C  0.01926530  0.65156720  0.10529044    -0.12000
C2270       C  0.04075086  0.65852567  0.09434087    -0.26000
C2271       C  0.05263529  0.67934090  0.07982798     0.36600
C2272       C  0.04325168  0.69304077  0.07704279    -0.27700
F2273       F  0.98880493  0.65735660  0.11236752    -0.19800
H2274       H  0.00974781  0.63554961  0.11646420     0.15900
F2275       F  0.07365721  0.68689887  0.06983149    -0.23500
H2276       H  0.05279518  0.70917908  0.06622086     0.17700
C2277       C  0.88818544  0.53468078  0.57054086    -0.27600
C2278       C  0.87364114  0.54294968  0.57422010     0.06100
C2279       C  0.86449143  0.54694827  0.54776033     0.25700
C2280       C  0.86927359  0.54206897  0.51860467    -0.12000
C2281       C  0.88290635  0.53275137  0.51519828    -0.26000
C2282       C  0.89266376  0.52947671  0.54149349     0.36500
C2283       C  0.86795757  0.54712235  0.60554648     0.06100
F2284       F  0.85011755  0.55463520  0.55004005    -0.19800
H2285       H  0.86158971  0.54475927  0.49874990     0.15900
F2286       F  0.90673853  0.52141118  0.53914761    -0.23500
H2287       H  0.89612347  0.53218307  0.59024774     0.17700
C2288       C  0.86305433  0.53173370  0.62965239     0.25700
C2289       C  0.85745466  0.53580670  0.65879715    -0.12000
C2290       C  0.85596731  0.55486835  0.66417242    -0.26000
C2291       C  0.86085071  0.57020697  0.64029243     0.36600
C2292       C  0.86713278  0.56653981  0.61151140    -0.27700
F2293       F  0.86281652  0.51234921  0.62482239    -0.19800
H2294       H  0.85355105  0.52371530  0.67689776     0.15900
F2295       F  0.85992107  0.58900194  0.64500193    -0.23500
H2296       H  0.87139207  0.57898669  0.59384651     0.17700
C2297       C  0.72745547  0.54110700  0.79560529    -0.27600
C2298       C  0.72777399  0.55495176  0.81923562     0.06100
C2299       C  0.74839385  0.57224473  0.82952353     0.25700
C2300       C  0.76813633  0.57561756  0.81625747    -0.12000
C2301       C  0.76792164  0.56189912  0.79233280    -0.26000
C2302       C  0.74720378  0.54449096  0.78222870     0.36500
C2303       C  0.70658877  0.55173316  0.83226956     0.06100
F2304       F  0.74946649  0.58641405  0.85167515    -0.19800
H2305       H  0.78366107  0.58928066  0.82459149     0.15900
F2306       F  0.74588417  0.53074594  0.75932520    -0.23500
H2307       H  0.71178792  0.52757242  0.78743046     0.17700
C2308       C  0.68984195  0.55042762  0.81293720     0.25700
C2309       C  0.67028665  0.54818149  0.82518273    -0.12000
C2310       C  0.66683067  0.54719082  0.85704044    -0.26000
C2311       C  0.68347235  0.54805444  0.87644008     0.36600
C2312       C  0.70309950  0.55035012  0.86409437    -0.27700
F2313       F  0.69276097  0.55227509  0.78213536    -0.19800
H2314       H  0.65800407  0.54771776  0.80953703     0.15900
F2315       F  0.68117405  0.54732724  0.90734729    -0.23500
H2316       H  0.71567511  0.55114111  0.87946721     0.17700
C2317       C  0.84806323  0.66607391  0.69696980    -0.27600
C2318       C  0.83040722  0.66216717  0.67747582     0.06100
C2319       C  0.81257663  0.64033400  0.67420506     0.25700
C2320       C  0.81249913  0.62280662  0.68998702    -0.12000
C2321       C  0.83009136  0.62660388  0.70959738    -0.26000
C2322       C  0.84795794  0.64851228  0.71294053     0.36500
C2323       C  0.83065810  0.68077057  0.66036713     0.06100
F2324       F  0.79490553  0.63601833  0.65635317    -0.19800
H2325       H  0.79836917  0.60621746  0.68722239     0.15900
F2326       F  0.86551155  0.65294487  0.73110957    -0.23500
H2327       H  0.86209521  0.68274405  0.69954150     0.17700
C2328       C  0.83406054  0.70002545  0.67556952     0.25700
C2329       C  0.83409157  0.71733845  0.65914284    -0.12000
C2330       C  0.83062738  0.71578884  0.62727488    -0.26000
C2331       C  0.82726356  0.69650370  0.61209158     0.36600
C2332       C  0.82729582  0.67922799  0.62853497    -0.27700
F2333       F  0.83683898  0.70188426  0.70639997    -0.19800
H2334       H  0.83665957  0.73194451  0.67145823     0.15900
F2335       F  0.82469012  0.69461309  0.58124560    -0.23500
H2336       H  0.82497515  0.66468402  0.61629965     0.17700
C2337       C  0.85564177  0.66674940  0.87473116    -0.27600
C2338       C  0.85933698  0.66328417  0.90531041     0.06100
C2339       C  0.85812766  0.64315108  0.91357768     0.25700
C2340       C  0.85502997  0.62759418  0.89117592    -0.12000
C2341       C  0.85285314  0.63172388  0.86028081    -0.26000
C2342       C  0.85233995  0.65108777  0.85232019     0.36500
C2343       C  0.86786862  0.68179983  0.92747296     0.06100
F2344       F  0.86173882  0.63928821  0.94290839    -0.19800
H2345       H  0.85523062  0.61269188  0.89786637     0.15900
F2346       F  0.85037268  0.65573567  0.82266401    -0.23500
H2347       H  0.85643678  0.68213055  0.86799240     0.17700
C2348       C  0.88744626  0.70183469  0.92080189     0.25700
C2349       C  0.89835890  0.71749137  0.94377845    -0.12000
C2350       C  0.88997125  0.71354025  0.97376762    -0.26000
C2351       C  0.86935259  0.69436736  0.97980082     0.36600
C2352       C  0.85848466  0.67857973  0.95677526    -0.27700
F2353       F  0.89711152  0.70543278  0.89280274    -0.19800
H2354       H  0.91406724  0.73221079  0.93843540     0.15900
F2355       F  0.86055986  0.68997328  0.00840244    -0.23500
H2356       H  0.84330880  0.66330065  0.96221537     0.17700
C2357       C  0.99130047  0.78207838  0.29148099    -0.27600
C2358       C  0.00199407  0.79598679  0.26615673     0.06100
C2359       C  0.02258670  0.81542387  0.27107505     0.25700
C2360       C  0.03214729  0.82064803  0.30035653    -0.12000
C2361       C  0.02145025  0.80686183  0.32580435    -0.26000
C2362       C  0.00082483  0.78734855  0.32088508     0.36500
C2363       C  0.99103221  0.79075714  0.23526522     0.06100
F2364       F  0.03312648  0.82997147  0.24785564    -0.19800
H2365       H  0.04793125  0.83584133  0.30311144     0.15900
F2366       F  0.98977564  0.77327530  0.34436562    -0.23500
H2367       H  0.97544850  0.76699604  0.28848026     0.17700
C2368       C  0.00260695  0.79190813  0.20819012     0.25700
C2369       C  0.99207778  0.78770118  0.17946212    -0.12000
C2370       C  0.96974743  0.78219749  0.17688054    -0.26000
C2371       C  0.95809738  0.78057578  0.20414878     0.36600
C2372       C  0.96862674  0.78478364  0.23273149    -0.27700
F2373       F  0.02398899  0.79663539  0.20946215    -0.19800
H2374       H  0.00149821  0.78883909  0.15917009     0.15900
F2375       F  0.93639707  0.77483301  0.20346162    -0.23500
H2376       H  0.95924289  0.78372027  0.25303714     0.17700
C2377       C  0.13691023  0.91957243  0.49882185    -0.27600
C2378       C  0.14012824  0.93955806  0.48623040     0.06100
C2379       C  0.12711797  0.93843794  0.46078440     0.25700
C2380       C  0.11190942  0.91780607  0.44775279    -0.12000
C2381       C  0.10923506  0.89780451  0.45980732    -0.26000
C2382       C  0.12166159  0.89902899  0.48611310     0.36500
C2383       C  0.15825656  0.96123901  0.49843297     0.06100
F2384       F  0.12910153  0.95728297  0.44845799    -0.19800
H2385       H  0.10248270  0.91755048  0.42788594     0.15900
F2386       F  0.11957856  0.88042418  0.49945421    -0.23500
H2387       H  0.14683090  0.91981873  0.51807299     0.17700
C2388       C  0.16181415  0.96512257  0.53017486     0.25700
C2389       C  0.18066073  0.98424332  0.54118515    -0.12000
C2390       C  0.19644328  0.00000533  0.52091574    -0.26000
C2391       C  0.19221802  0.99663481  0.48915300     0.36600
C2392       C  0.17346103  0.97747930  0.47821385    -0.27700
F2393       F  0.14720102  0.95029534  0.55064930    -0.19800
H2394       H  0.18317504  0.98636698  0.56569256     0.15900
F2395       F  0.20644147  0.01153301  0.46840411    -0.23500
H2396       H  0.17135307  0.97493192  0.45371612     0.17700
C2397       C  0.95821877  0.79993209  0.47644969    -0.27600
C2398       C  0.95660627  0.80131859  0.50836596     0.06100
C2399       C  0.97419051  0.80382928  0.52685009     0.25700
C2400       C  0.99234599  0.80355869  0.51373355    -0.12000
C2401       C  0.99340927  0.80078903  0.48190857    -0.26000
C2402       C  0.97644217  0.79978698  0.46324209     0.36500
C2403       C  0.93519317  0.79646197  0.52223837     0.06100
F2404       F  0.97304707  0.80480071  0.55778123    -0.19800
H2405       H  0.00518841  0.80461714  0.52879792     0.15900
F2406       F  0.97672451  0.79738181  0.43245348    -0.23500
H2407       H  0.94479481  0.79796114  0.46181358     0.17700
C2408       C  0.93345028  0.81090583  0.54310916     0.25700
C2409       C  0.91281144  0.80509736  0.55626625    -0.12000
C2410       C  0.89365417  0.78476760  0.54893449    -0.26000
C2411       C  0.89577995  0.77026991  0.52842246     0.36600
C2412       C  0.91619813  0.77619356  0.51522674    -0.27700
F2413       F  0.95154650  0.83072734  0.55030026    -0.19800
H2414       H  0.91178964  0.81659078  0.57192229     0.15900
F2415       F  0.87822214  0.75003712  0.52131627    -0.23500
H2416       H  0.91727244  0.76461215  0.49977008     0.17700
C2417       C  0.18002188  0.82449506  0.33451863    -0.27600
C2418       C  0.17006418  0.83611909  0.32267786     0.06100
C2419       C  0.17786152  0.84735376  0.29446394     0.25700
C2420       C  0.19518860  0.84682499  0.27873415    -0.12000
C2421       C  0.20503011  0.83499042  0.29062178    -0.26000
C2422       C  0.19697888  0.82366104  0.31876410     0.36500
C2423       C  0.15194666  0.83656630  0.34040586     0.06100
F2424       F  0.16843694  0.85842056  0.28169477    -0.19800
H2425       H  0.20077037  0.85555467  0.25710939     0.15900
F2426       F  0.20541667  0.81165612  0.33144419    -0.23500
H2427       H  0.17482883  0.81612160  0.35643030     0.17700
C2428       C  0.13502417  0.81715279  0.35463530     0.25700
C2429       C  0.11893465  0.81798648  0.37283804    -0.12000
C2430       C  0.11890988  0.83797499  0.37659766    -0.26000
C2431       C  0.13559067  0.85733597  0.36216542     0.36600
C2432       C  0.15201141  0.85663487  0.34455652    -0.27700
F2433       F  0.13362538  0.79717506  0.35031361    -0.19800
H2434       H  0.10603559  0.80280837  0.38324934     0.15900
F2435       F  0.13633169  0.87708545  0.36567617    -0.23500
H2436       H  0.16502478  0.87192845  0.33458483     0.17700
C2437       C  0.98409354  0.69365562  0.39624240    -0.27600
C2438       C  0.96927994  0.68073838  0.41975581     0.06100
C2439       C  0.96777841  0.69174063  0.44580158     0.25700
C2440       C  0.98130276  0.71480090  0.44871187    -0.12000
C2441       C  0.99658802  0.72766253  0.42571949    -0.26000
C2442       C  0.99755615  0.71688221  0.39907258     0.36500
C2443       C  0.95610679  0.65588294  0.41755140     0.06100
F2444       F  0.95320770  0.68021824  0.46856009    -0.19800
H2445       H  0.98003994  0.72264008  0.46941052     0.15900
F2446       F  0.01239598  0.72852143  0.37664863    -0.23500
H2447       H  0.98584784  0.68565955  0.37607002     0.17700
C2448       C  0.94481393  0.64534643  0.39048318     0.25700
C2449       C  0.93388135  0.62214708  0.38790399    -0.12000
C2450       C  0.93375356  0.60869534  0.41220822    -0.26000
C2451       C  0.94410967  0.61913345  0.43986441     0.36600
C2452       C  0.95524622  0.64244274  0.44235511    -0.27700
F2453       F  0.94433682  0.65746463  0.36639643    -0.19800
H2454       H  0.92582540  0.61470389  0.36641317     0.15900
F2455       F  0.94454955  0.60700238  0.46394801    -0.23500
H2456       H  0.96390913  0.65003955  0.46344207     0.17700
C2457       C  0.10988759  0.66319083  0.88438127    -0.27600
C2458       C  0.12055798  0.67652575  0.91011283     0.06100
C2459       C  0.13659232  0.69899055  0.90535290     0.25700
C2460       C  0.14174042  0.70776796  0.87565454    -0.12000
C2461       C  0.13121463  0.69442636  0.84981510    -0.26000
C2462       C  0.11510945  0.67193474  0.85461097     0.36500
C2463       C  0.11593129  0.66635899  0.94135360     0.06100
F2464       F  0.14804398  0.71229558  0.92924323    -0.19800
H2465       H  0.15426962  0.72512251  0.87296107     0.15900
F2466       F  0.10458258  0.65823832  0.83064421    -0.23500
H2467       H  0.09749717  0.64581141  0.88734575     0.17700
C2468       C  0.11181275  0.67621128  0.96683138     0.25700
C2469       C  0.10723810  0.66585220  0.99574303    -0.12000
C2470       C  0.10656618  0.64544487  0.99984441    -0.26000
C2471       C  0.11099698  0.63587129  0.97424053     0.36600
C2472       C  0.11556657  0.64621207  0.94563259    -0.27700
F2473       F  0.11142399  0.69541770  0.96364606    -0.19800
H2474       H  0.10382804  0.67362324  0.01478135     0.15900
F2475       F  0.11090344  0.61635895  0.97651757    -0.23500
H2476       H  0.11897624  0.63840331  0.92662960     0.17700
C2477       C  0.28638692  0.83236681  0.64285157    -0.27600
C2478       C  0.28259760  0.83038438  0.67462931     0.06100
C2479       C  0.29875690  0.84648250  0.69400815     0.25700
C2480       C  0.31785282  0.86450898  0.68177863    -0.12000
C2481       C  0.32133177  0.86712408  0.64990165    -0.26000
C2482       C  0.30550214  0.85052811  0.63050985     0.36500
C2483       C  0.26115129  0.81263204  0.68740723     0.06100
F2484       F  0.29551385  0.84554461  0.72473873    -0.19800
H2485       H  0.32959624  0.87687679  0.69746624     0.15900
F2486       F  0.30802769  0.85211820  0.59963758    -0.23500
H2487       H  0.27425170  0.82003687  0.62748684     0.17700
C2488       C  0.24098397  0.80952789  0.67584952     0.25700
C2489       C  0.22091193  0.79431649  0.68965120    -0.12000
C2490       C  0.22032367  0.78179125  0.71542172    -0.26000
C2491       C  0.24054284  0.78445772  0.72646389     0.36600
C2492       C  0.26068436  0.79973337  0.71254745    -0.27700
F2493       F  0.24070186  0.82199828  0.65208503    -0.19800
H2494       H  0.20578224  0.79275871  0.68038896     0.15900
F2495       F  0.24100426  0.77260878  0.75089178    -0.23500
H2496       H  0.27601785  0.80169212  0.72166296     0.17700
C2497       C  0.01839030  0.64962460  0.77839722    -0.27600
C2498       C  0.00565247  0.63653293  0.75347263     0.06100
C2499       C  0.01677503  0.63601203  0.72700980     0.25700
C2500       C  0.03985450  0.64917745  0.72493845    -0.12000
C2501       C  0.05255595  0.66334216  0.74906012    -0.26000
C2502       C  0.04162279  0.66283381  0.77634353     0.36500
C2503       C  0.98087418  0.62435634  0.75469274     0.06100
F2504       F  0.00531081  0.62299414  0.70289252    -0.19800
H2505       H  0.04777065  0.64883384  0.70379140     0.15900
F2506       F  0.05310924  0.67610137  0.80023754    -0.23500
H2507       H  0.01025122  0.65038950  0.79906774     0.17700
C2508       C  0.96949671  0.61133273  0.78027339     0.25700
C2509       C  0.94650588  0.60197637  0.78278588    -0.12000
C2510       C  0.93419129  0.60516384  0.75980437    -0.26000
C2511       C  0.94529050  0.61698115  0.73326118     0.36600
C2512       C  0.96843338  0.62657021  0.73086047    -0.27700
F2513       F  0.98065587  0.60789623  0.80311258    -0.19800
H2514       H  0.93834076  0.59273007  0.80333929     0.15900
F2515       F  0.93409532  0.62066582  0.71072899    -0.23500
H2516       H  0.97676656  0.63660192  0.71093287     0.17700
C2517       C  0.13633460  0.80144716  0.62550247    -0.27600
C2518       C  0.12793126  0.79131987  0.59713033     0.06100
C2519       C  0.12461590  0.77003621  0.59148067     0.25700
C2520       C  0.12849107  0.75852042  0.61454845    -0.12000
C2521       C  0.13562799  0.76798006  0.64374129    -0.26000
C2522       C  0.14032468  0.78995741  0.64869096     0.36500
C2523       C  0.11831298  0.80062128  0.57590409     0.06100
F2524       F  0.11601431  0.75975014  0.56437285    -0.19800
H2525       H  0.12483251  0.74171550  0.60994402     0.15900
F2526       F  0.14717591  0.79975096  0.67648753    -0.23500
H2527       H  0.13856165  0.81772272  0.63024996     0.17700
C2528       C  0.09580058  0.79379204  0.57886325     0.25700
C2529       C  0.08521066  0.79930502  0.55646147    -0.12000
C2530       C  0.09677153  0.81156040  0.53036815    -0.26000
C2531       C  0.11978013  0.81966757  0.52840505     0.36600
C2532       C  0.13043345  0.81404681  0.55105554    -0.27700
F2533       F  0.08373833  0.78061992  0.60260781    -0.19800
H2534       H  0.06757417  0.79294387  0.55895410     0.15900
F2535       F  0.13175694  0.83218686  0.50418539    -0.23500
H2536       H  0.14787717  0.81943067  0.54864874     0.17700
C2537       C  0.15075380  0.82109756  0.79770592    -0.27600
C2538       C  0.16015093  0.82712267  0.82713188     0.06100
C2539       C  0.16865110  0.81466496  0.84079436     0.25700
C2540       C  0.16823351  0.79698676  0.82512022    -0.12000
C2541       C  0.15917411  0.79103547  0.79546716    -0.26000
C2542       C  0.15027108  0.80328355  0.78193298     0.36500
C2543       C  0.16052532  0.84592927  0.84388127     0.06100
F2544       F  0.17684355  0.81916986  0.86973746    -0.19800
H2545       H  0.17496072  0.78781820  0.83649028     0.15900
F2546       F  0.14146813  0.79839069  0.75334352    -0.23500
H2547       H  0.14401531  0.83040556  0.78675480     0.17700
C2548       C  0.18010243  0.86263631  0.85781352     0.25700
C2549       C  0.17991661  0.87964850  0.87466832    -0.12000
C2550       C  0.16038922  0.88064048  0.87735295    -0.26000
C2551       C  0.14088009  0.86408443  0.86321943     0.36600
C2552       C  0.14099743  0.84693483  0.84669811    -0.27700
F2553       F  0.19955735  0.86285974  0.85446707    -0.19800
H2554       H  0.19518583  0.89238689  0.88499789     0.15900
F2555       F  0.12152342  0.86413034  0.86611203    -0.23500
H2556       H  0.12568763  0.83417315  0.83649637     0.17700
C2557       C  0.30217688  0.47011510  0.18983892    -0.27600
C2558       C  0.28160528  0.45911656  0.17453517     0.06100
C2559       C  0.28083664  0.45005416  0.14532853     0.25700
C2560       C  0.29998516  0.45185048  0.13222938    -0.12000
C2561       C  0.32020784  0.46197528  0.14817589    -0.26000
C2562       C  0.32111922  0.47110749  0.17720695     0.36500
C2563       C  0.26102304  0.45652324  0.18934701     0.06100
F2564       F  0.26139162  0.43836208  0.12994945    -0.19800
H2565       H  0.29870132  0.44424288  0.11013922     0.15900
F2566       F  0.34031499  0.48096746  0.19346329    -0.23500
H2567       H  0.30366077  0.47787741  0.21182243     0.17700
C2568       C  0.25684466  0.45180884  0.22095490     0.25700
C2569       C  0.23691481  0.44813396  0.23399703    -0.12000
C2570       C  0.22044392  0.44831988  0.21579454    -0.26000
C2571       C  0.22460877  0.45336272  0.18451895     0.36600
C2572       C  0.24484933  0.45792076  0.17166369    -0.27700
F2573       F  0.27136408  0.44947202  0.23907338    -0.19800
H2574       H  0.23384432  0.44393834  0.25808045     0.15900
F2575       F  0.20903484  0.45383014  0.16636079    -0.23500
H2576       H  0.24770253  0.46229892  0.14764899     0.17700
C2577       C  0.12822560  0.50302794  0.19140969    -0.27600
C2578       C  0.11900858  0.50185063  0.16228921     0.06100
C2579       C  0.11122242  0.48219099  0.14521891     0.25700
C2580       C  0.11207304  0.46403888  0.15740096    -0.12000
C2581       C  0.12044554  0.46482399  0.18702816    -0.26000
C2582       C  0.12885943  0.48471631  0.20378241     0.36500
C2583       C  0.11622468  0.52047323  0.15060482     0.06100
F2584       F  0.10162396  0.48000219  0.11740619    -0.19800
H2585       H  0.10528846  0.44896059  0.14393146     0.15900
F2586       F  0.13758051  0.48648331  0.23212715    -0.23500
H2587       H  0.13468341  0.51810144  0.20481991     0.17700
C2588       C  0.10642021  0.52971251  0.16906990     0.25700
C2589       C  0.10214608  0.54590398  0.15730586    -0.12000
C2590       C  0.10742786  0.55331028  0.12680676    -0.26000
C2591       C  0.11774043  0.54443677  0.10849606     0.36600
C2592       C  0.12210369  0.52825868  0.12036742    -0.27700
F2593       F  0.09987247  0.52227191  0.19807829    -0.19800
H2594       H  0.09415568  0.55228515  0.17203235     0.15900
F2595       F  0.12275238  0.55060426  0.07875069    -0.23500
H2596       H  0.12979353  0.52152539  0.10570359     0.17700
C2597       C  0.16015682  0.30615626  0.32801880    -0.27600
C2598       C  0.16182068  0.32459543  0.34342395     0.06100
C2599       C  0.16411378  0.32568323  0.37555072     0.25700
C2600       C  0.16494142  0.30871760  0.39173489    -0.12000
C2601       C  0.16299944  0.29015123  0.37630633    -0.26000
C2602       C  0.16070557  0.28909077  0.34418305     0.36500
C2603       C  0.16135755  0.34263728  0.32576702     0.06100
F2604       F  0.16476946  0.34274948  0.39142635    -0.19800
H2605       H  0.16638538  0.30975501  0.41644954     0.15900
F2606       F  0.15930411  0.27168895  0.32827101    -0.23500
H2607       H  0.15862297  0.30505984  0.30331646     0.17700
C2608       C  0.17766672  0.36495425  0.33051563     0.25700
C2609       C  0.17694381  0.38187874  0.31433532    -0.12000
C2610       C  0.16021732  0.37704895  0.29257300    -0.26000
C2611       C  0.14428490  0.35463097  0.28696894     0.36600
C2612       C  0.14485370  0.33762806  0.30355732    -0.27700
F2613       F  0.19471092  0.37042113  0.35022722    -0.19800
H2614       H  0.18977505  0.39890263  0.31867807     0.15900
F2615       F  0.12790050  0.34913032  0.26609425    -0.23500
H2616       H  0.13220133  0.32051286  0.29934568     0.17700
C2617       C  0.16957028  0.20239108  0.97379015    -0.27600
C2618       C  0.15288102  0.20055745  0.99356324     0.06100
C2619       C  0.15459591  0.19706759  0.02499129     0.25700
C2620       C  0.17345891  0.19727531  0.03654952    -0.12000
C2621       C  0.19091145  0.20059066  0.01704431    -0.26000
C2622       C  0.18832902  0.20235962  0.98522540     0.36500
C2623       C  0.13513521  0.20456894  0.98160438     0.06100
F2624       F  0.13820200  0.19386802  0.04467867    -0.19800
H2625       H  0.17463673  0.19544884  0.06099467     0.15900
F2626       F  0.20434154  0.20514220  0.96509161    -0.23500
H2627       H  0.16864530  0.20499139  0.94949881     0.17700
C2628       C  0.13104942  0.22026032  0.99584036     0.25700
C2629       C  0.11626111  0.22594656  0.98292549    -0.12000
C2630       C  0.10519145  0.21640261  0.95525655    -0.26000
C2631       C  0.10867602  0.20009558  0.94143084     0.36600
C2632       C  0.12361073  0.19439775  0.95444201    -0.27700
F2633       F  0.14236369  0.23121448  0.02135459    -0.19800
H2634       H  0.11399737  0.23844308  0.99440389     0.15900
F2635       F  0.09817876  0.19005063  0.91501958    -0.23500
H2636       H  0.12644756  0.18224887  0.94302537     0.17700
C2637       C  0.92883756  0.13248499  0.04197126    -0.27600
C2638       C  0.92989858  0.14838914  0.02098304     0.06100
C2639       C  0.91021636  0.14825367  0.01349809     0.25700
C2640       C  0.89012269  0.13275425  0.02673464    -0.12000
C2641       C  0.88894419  0.11698545  0.04802819    -0.26000
C2642       C  0.90859158  0.11693453  0.05547491     0.36500
C2643       C  0.95141732  0.16565484  0.00761285     0.06100
F2644       F  0.91043572  0.16367792  0.99417962    -0.19800
H2645       H  0.87544325  0.13346432  0.02056622     0.15900
F2646       F  0.90829658  0.10185939  0.07553893    -0.23500
H2647       H  0.94370711  0.13206429  0.04786492     0.17700
C2648       C  0.96997215  0.17857796  0.02631673     0.25700
C2649       C  0.98909624  0.19671716  0.01400951    -0.12000
C2650       C  0.99018577  0.20238318  0.98283005    -0.26000
C2651       C  0.97191736  0.18881044  0.96390564     0.36600
C2652       C  0.95291423  0.17061451  0.97618815    -0.27700
F2653       F  0.96919330  0.17452807  0.05683471    -0.19800
H2654       H  0.00285536  0.20675473  0.02916690     0.15900
F2655       F  0.97180334  0.19375224  0.93384795    -0.23500
H2656       H  0.93899712  0.16073702  0.96117879     0.17700
C2657       C  0.13077053  0.32887395  0.04268744    -0.27600
C2658       C  0.12320612  0.32536756  0.07306971     0.06100
C2659       C  0.10460104  0.30489448  0.08117381     0.25700
C2660       C  0.09286820  0.28889511  0.05880472    -0.12000
C2661       C  0.09958325  0.29290402  0.02804975    -0.26000
C2662       C  0.11923494  0.31268306  0.02033809     0.36500
C2663       C  0.13194067  0.34413457  0.09488971     0.06100
F2664       F  0.09655680  0.30117716  0.11019167    -0.19800
H2665       H  0.07785690  0.27378413  0.06531407     0.15900
F2666       F  0.12623104  0.31724145  0.99084148    -0.23500
H2667       H  0.14496504  0.34463159  0.03601118     0.17700
C2668       C  0.13917181  0.34243895  0.12428989     0.25700
C2669       C  0.14233896  0.35804807  0.14685692    -0.12000
C2670       C  0.13806204  0.37536711  0.14046533    -0.26000
C2671       C  0.13264912  0.37802379  0.11024018     0.36600
C2672       C  0.12972443  0.36257395  0.08773359    -0.27700
F2673       F  0.14205075  0.32507606  0.13154092    -0.19800
H2674       H  0.14672509  0.35573090  0.16981255     0.15900
F2675       F  0.12909367  0.39492071  0.10269224    -0.23500
H2676       H  0.12420691  0.36418661  0.06516745     0.17700
C2677       C  0.18304184  0.33959287  0.80226276    -0.27600
C2678       C  0.17186331  0.34361784  0.82598961     0.06100
C2679       C  0.17827875  0.36583193  0.83279060     0.25700
C2680       C  0.19526234  0.38340106  0.81622880    -0.12000
C2681       C  0.20626527  0.37943652  0.79220241    -0.26000
C2682       C  0.19994031  0.35719496  0.78544953     0.36500
C2683       C  0.15340017  0.32474253  0.84322351     0.06100
F2684       F  0.16765823  0.37063759  0.85484761    -0.19800
H2685       H  0.19956757  0.40022768  0.82204867     0.15900
F2686       F  0.21018809  0.35235570  0.76287561    -0.23500
H2687       H  0.17880610  0.32272962  0.79682917     0.17700
C2688       C  0.13663090  0.30605636  0.82777001     0.25700
C2689       C  0.11916812  0.28872265  0.84406347    -0.12000
C2690       C  0.11771810  0.28960825  0.87610831    -0.26000
C2691       C  0.13450324  0.30821708  0.89163972     0.36600
C2692       C  0.15216586  0.32544467  0.87536116    -0.27700
F2693       F  0.13667582  0.30479045  0.79677191    -0.19800
H2694       H  0.10648463  0.27467339  0.83142899     0.15900
F2695       F  0.13423290  0.30951414  0.92261681    -0.23500
H2696       H  0.16504910  0.33931638  0.88800984     0.17700
C2697       C  0.11735171  0.48269293  0.43932793    -0.27600
C2698       C  0.11406293  0.46132118  0.43422089     0.06100
C2699       C  0.10781354  0.44644453  0.45912269     0.25700
C2700       C  0.10479549  0.45283436  0.48832261    -0.12000
C2701       C  0.10788478  0.47416635  0.49342028    -0.26000
C2702       C  0.11437664  0.48912328  0.46850533     0.36500
C2703       C  0.11832253  0.45510592  0.40334604     0.06100
F2704       F  0.10415372  0.42552274  0.45509956    -0.19800
H2705       H  0.09964884  0.44089004  0.50687554     0.15900
F2706       F  0.11828639  0.51015513  0.47234756    -0.23500
H2707       H  0.12265600  0.49461752  0.42073502     0.17700
C2708       C  0.10864451  0.45796686  0.37664265     0.25700
C2709       C  0.11365437  0.45279098  0.34769445    -0.12000
C2710       C  0.12857602  0.44486109  0.34472074    -0.26000
C2711       C  0.13794690  0.44175105  0.37171863     0.36600
C2712       C  0.13284203  0.44681433  0.40044569    -0.27700
F2713       F  0.09414297  0.46552115  0.37858219    -0.19800
H2714       H  0.10604251  0.45524639  0.32757608     0.15900
F2715       F  0.15216122  0.43380593  0.37063216    -0.23500
H2716       H  0.14065393  0.44462925  0.42056455     0.17700
C2717       C  0.12439321  0.62829785  0.69984432    -0.27600
C2718       C  0.12501888  0.62601854  0.66791712     0.06100
C2719       C  0.12747401  0.64352227  0.64904449     0.25700
C2720       C  0.12817726  0.66228017  0.66183000    -0.12000
C2721       C  0.12616029  0.66399985  0.69367345    -0.26000
C2722       C  0.12493736  0.64701423  0.71267297     0.36500
C2723       C  0.12037578  0.60439679  0.65454532     0.06100
F2724       F  0.12743368  0.64181298  0.61809520    -0.19800
H2725       H  0.12921587  0.67501745  0.64647550     0.15900
F2726       F  0.12299712  0.64777430  0.74349362    -0.23500
H2727       H  0.12261657  0.61509537  0.71488583     0.17700
C2728       C  0.13321581  0.60313303  0.63061734     0.25700
C2729       C  0.12727287  0.58258140  0.61710555    -0.12000
C2730       C  0.10852781  0.56282891  0.62726337    -0.26000
C2731       C  0.09606818  0.56418068  0.65179255     0.36600
C2732       C  0.10196662  0.58466907  0.66507261    -0.27700
F2733       F  0.15165512  0.62168610  0.62052520    -0.19800
H2734       H  0.13738311  0.58217160  0.59861553     0.15900
F2735       F  0.07784673  0.54581516  0.66280785    -0.23500
H2736       H  0.09168352  0.58516501  0.68326318     0.17700
C2737       C  0.16542043  0.46643906  0.63865663    -0.27600
C2738       C  0.16956857  0.46794520  0.67029153     0.06100
C2739       C  0.15560258  0.47130009  0.68998068     0.25700
C2740       C  0.13703290  0.47160711  0.67837291    -0.12000
C2741       C  0.13196108  0.46858444  0.64690462    -0.26000
C2742       C  0.14685432  0.46670575  0.62698932     0.36500
C2743       C  0.18661684  0.46324103  0.68286371     0.06100
F2744       F  0.15894866  0.47264228  0.72070582    -0.19800
H2745       H  0.12607666  0.47326082  0.69431548     0.15900
F2746       F  0.14292223  0.46383781  0.59642615    -0.23500
H2747       H  0.17612081  0.46411245  0.62301624     0.17700
C2748       C  0.18630424  0.44360057  0.67451244     0.25700
C2749       C  0.20080212  0.43788407  0.68823897    -0.12000
C2750       C  0.21605729  0.45151004  0.71073690    -0.26000
C2751       C  0.21690059  0.47160230  0.71844552     0.36600
C2752       C  0.20222486  0.47730933  0.70466542    -0.27700
F2753       F  0.17120870  0.42928673  0.65407590    -0.19800
H2754       H  0.19964992  0.42235399  0.68156429     0.15900
F2755       F  0.23177970  0.48571009  0.73923809    -0.23500
H2756       H  0.20291629  0.49265313  0.71119499     0.17700
C2757       C  0.02442438  0.51892279  0.51037495    -0.27600
C2758       C  0.00248797  0.50206507  0.51614079     0.06100
C2759       C  0.99888057  0.48531566  0.53754979     0.25700
C2760       C  0.01681729  0.48572276  0.55281115    -0.12000
C2761       C  0.03877397  0.50247725  0.54666488    -0.26000
C2762       C  0.04231853  0.51912080  0.52514071     0.36500
C2763       C  0.98384516  0.50203235  0.49904091     0.06100
F2764       F  0.97815214  0.46802988  0.54294707    -0.19800
H2765       H  0.01351272  0.47259505  0.56900747     0.15900
F2766       F  0.06309021  0.53589272  0.51848179    -0.23500
H2767       H  0.02779538  0.53217543  0.49437427     0.17700
C2768       C  0.96410345  0.49762069  0.51382228     0.25700
C2769       C  0.94684867  0.49747175  0.49720690    -0.12000
C2770       C  0.94893036  0.50228583  0.46561659    -0.26000
C2771       C  0.96894761  0.50749693  0.45103186     0.36600
C2772       C  0.98603892  0.50713858  0.46752180    -0.27700
F2773       F  0.96165696  0.49418177  0.54451835    -0.19800
H2774       H  0.93183736  0.49382309  0.50931015     0.15900
F2775       F  0.97186027  0.51237351  0.42069729    -0.23500
H2776       H  0.00100076  0.51063520  0.45543199     0.17700
C2777       C  0.88388448  0.47530381  0.84046421    -0.27600
C2778       C  0.87018575  0.48109783  0.85676416     0.06100
C2779       C  0.86098566  0.47027976  0.88470865     0.25700
C2780       C  0.86610912  0.45467192  0.89654417    -0.12000
C2781       C  0.88046052  0.44940446  0.88081228    -0.26000
C2782       C  0.88901652  0.45968664  0.85223216     0.36500
C2783       C  0.86636443  0.49899052  0.84491461     0.06100
F2784       F  0.84690793  0.47468303  0.90053645    -0.19800
H2785       H  0.85907759  0.44697371  0.91839255     0.15900
F2786       F  0.90243933  0.45480803  0.83558807    -0.23500
H2787       H  0.89111746  0.48333300  0.81884304     0.17700
C2788       C  0.87005917  0.51697582  0.86361448     0.25700
C2789       C  0.86838642  0.53471155  0.85153364    -0.12000
C2790       C  0.86332480  0.53519290  0.82042267    -0.26000
C2791       C  0.85883909  0.51676476  0.80196858     0.36600
C2792       C  0.86040863  0.49894961  0.81415645    -0.27700
F2793       F  0.87671213  0.51816648  0.89311117    -0.19800
H2794       H  0.87212785  0.54861482  0.86637602     0.15900
F2795       F  0.85356893  0.51614800  0.77192404    -0.23500
H2796       H  0.85735351  0.48522637  0.79934853     0.17700
C2797       C  0.82133677  0.29621505  0.86431349    -0.27600
C2798       C  0.81958613  0.29254753  0.83248127     0.06100
C2799       C  0.83591877  0.30884233  0.81343440     0.25700
C2800       C  0.85417657  0.32762809  0.82605350    -0.12000
C2801       C  0.85676878  0.33074403  0.85802207    -0.26000
C2802       C  0.83963805  0.31509536  0.87702908     0.36500
C2803       C  0.80224790  0.27082269  0.81947354     0.06100
F2804       F  0.83509337  0.30587781  0.78265693    -0.19800
H2805       H  0.86683630  0.33929820  0.81058755     0.15900
F2806       F  0.84087158  0.31749694  0.90791303    -0.23500
H2807       H  0.80879881  0.28403951  0.87946107     0.17700
C2808       C  0.80003469  0.25086591  0.83068594     0.25700
C2809       C  0.78544409  0.23057884  0.81678248    -0.12000
C2810       C  0.77254646  0.22943455  0.79120658    -0.26000
C2811       C  0.77426524  0.24940314  0.78046144     0.36600
C2812       C  0.78904435  0.26983968  0.79442152    -0.27700
F2813       F  0.81285024  0.25104149  0.85422565    -0.19800
H2814       H  0.78465293  0.21570294  0.82588366     0.15900
F2815       F  0.76204691  0.24934257  0.75621823    -0.23500
H2816       H  0.79037573  0.28498675  0.78542849     0.17700
C2817       C  0.95195691  0.31958792  0.94668006    -0.27600
C2818       C  0.95504514  0.30864730  0.92157918     0.06100
C2819       C  0.94510084  0.30864447  0.89351227     0.25700
C2820       C  0.93378865  0.32038914  0.89029098    -0.12000
C2821       C  0.93225467  0.33282528  0.91464392    -0.26000
C2822       C  0.94093408  0.33173269  0.94327187     0.36500
C2823       C  0.96988272  0.29881848  0.92417880     0.06100
F2824       F  0.94753886  0.29862013  0.86841138    -0.19800
H2825       H  0.92708821  0.32057304  0.86797793     0.15900
F2826       F  0.94000157  0.34341450  0.96748918    -0.23500
H2827       H  0.95871045  0.31933779  0.96890552     0.17700
C2828       C  0.99015595  0.31022076  0.94016504     0.25700
C2829       C  0.00408443  0.30125340  0.94257812    -0.12000
C2830       C  0.99870742  0.28101665  0.92849565    -0.26000
C2831       C  0.97884583  0.26976365  0.91174983     0.36600
C2832       C  0.96447983  0.27846312  0.90995327    -0.27700
F2833       F  0.99693436  0.33040643  0.95293773    -0.19800
H2834       H  0.01935214  0.31031516  0.95550023     0.15900
F2835       F  0.97284590  0.24993796  0.89836778    -0.23500
H2836       H  0.94891881  0.26901428  0.89785970     0.17700
C2837       C  0.96619435  0.43921980  0.75755204    -0.27600
C2838       C  0.98555051  0.45913534  0.76492352     0.06100
C2839       C  0.98781399  0.46813474  0.79435720     0.25700
C2840       C  0.97148388  0.45657667  0.81658829    -0.12000
C2841       C  0.95284616  0.43574784  0.80987385    -0.26000
C2842       C  0.95001697  0.42754071  0.77973424     0.36500
C2843       C  0.00417387  0.46850886  0.74287650     0.06100
F2844       F  0.00617532  0.48765438  0.80186190    -0.19800
H2845       H  0.97404080  0.46334879  0.83950318     0.15900
F2846       F  0.93205096  0.40779497  0.77188396    -0.23500
H2847       H  0.96418763  0.43203980  0.73496706     0.17700
C2848       C  0.02380309  0.46848000  0.75001376     0.25700
C2849       C  0.03943876  0.47258670  0.72720749    -0.12000
C2850       C  0.03592308  0.47701623  0.69694603    -0.26000
C2851       C  0.01700880  0.47867219  0.69034404     0.36600
C2852       C  0.00116849  0.47417017  0.71311333    -0.27700
F2853       F  0.02701185  0.46267722  0.77844344    -0.19800
H2854       H  0.05388947  0.47135209  0.73298681     0.15900
F2855       F  0.01294979  0.48298260  0.66147605    -0.23500
H2856       H  0.98605828  0.47413414  0.70721567     0.17700
C2857       C  0.98914247  0.48082801  0.97266841    -0.27600
C2858       C  0.98452315  0.48983225  0.99849826     0.06100
C2859       C  0.96232827  0.48195773  0.00658713     0.25700
C2860       C  0.94515817  0.46544162  0.98918041    -0.12000
C2861       C  0.94960129  0.45635105  0.96316299    -0.26000
C2862       C  0.97192158  0.46419647  0.95518370     0.36500
C2863       C  0.00281325  0.50825757  0.01587749     0.06100
F2864       F  0.95718807  0.49082378  0.03067813    -0.19800
H2865       H  0.92825911  0.45995583  0.99605143     0.15900
F2866       F  0.97720080  0.45591134  0.93057481    -0.23500
H2867       H  0.00617561  0.48672211  0.96603463     0.17700
C2868       C  0.00449000  0.50721922  0.04791616     0.25700
C2869       C  0.02146804  0.52518010  0.06388996    -0.12000
C2870       C  0.03721793  0.54427410  0.04815280    -0.26000
C2871       C  0.03551697  0.54525988  0.01614477     0.36600
C2872       C  0.01847850  0.52741973  0.00025974    -0.27700
F2873       F  0.99009363  0.48863243  0.06364417    -0.19800
H2874       H  0.02265812  0.52394098  0.08847185     0.15900
F2875       F  0.05005712  0.56369691  0.00025749    -0.23500
H2876       H  0.01731822  0.52868411  0.97568008     0.17700
C2877       C  0.98917048  0.21959856  0.79227560    -0.27600
C2878       C  0.99805768  0.21292540  0.76838020     0.06100
C2879       C  0.01623720  0.21008997  0.77466432     0.25700
C2880       C  0.02560119  0.21436267  0.80391147    -0.12000
C2881       C  0.01706951  0.22146157  0.82776937    -0.26000
C2882       C  0.99849184  0.22377417  0.82172662     0.36500
C2883       C  0.98823046  0.20865242  0.73710722     0.06100
F2884       F  0.02473739  0.20277498  0.75265035    -0.19800
H2885       H  0.03967167  0.21209057  0.80785246     0.15900
F2886       F  0.98975075  0.23071678  0.84387630    -0.23500
H2887       H  0.97519804  0.22196372  0.78797485     0.17700
C2888       C  0.96533477  0.19455670  0.73286582     0.25700
C2889       C  0.95629865  0.18995340  0.70341362    -0.12000
C2890       C  0.96977547  0.19925084  0.67729244    -0.26000
C2891       C  0.99270192  0.21366646  0.68156266     0.36600
C2892       C  0.00177142  0.21823900  0.71118364    -0.27700
F2893       F  0.95173437  0.18457094  0.75715038    -0.19800
H2894       H  0.93858101  0.17883527  0.70115337     0.15900
F2895       F  0.00643196  0.22303776  0.65724717    -0.23500
H2896       H  0.01945904  0.22932175  0.71390212     0.17700
C2897       C  0.86882873  0.08100756  0.50556589    -0.27600
C2898       C  0.84972332  0.06552766  0.52164182     0.06100
C2899       C  0.84688858  0.07059859  0.55198423     0.25700
C2900       C  0.86257098  0.09071456  0.56553605    -0.12000
C2901       C  0.88107388  0.10644945  0.54896550    -0.26000
C2902       C  0.88419182  0.10137479  0.51889239     0.36500
C2903       C  0.83229697  0.04474676  0.50642051     0.06100
F2904       F  0.82831805  0.05670442  0.56802200    -0.19800
H2905       H  0.85970824  0.09447381  0.58855157     0.15900
F2906       F  0.90210609  0.11615871  0.50239928    -0.23500
H2907       H  0.87173681  0.07746724  0.48246301     0.17700
C2908       C  0.82453923  0.04533586  0.47678708     0.25700
C2909       C  0.80668263  0.02620428  0.46401448    -0.12000
C2910       C  0.79588287  0.00614062  0.48056480    -0.26000
C2911       C  0.80418530  0.00528850  0.50964001     0.36600
C2912       C  0.82230185  0.02430639  0.52218458    -0.27700
F2913       F  0.83324933  0.06470204  0.46084107    -0.19800
H2914       H  0.80053603  0.02742719  0.44173240     0.15900
F2915       F  0.79462992  0.98613980  0.52616252    -0.23500
H2916       H  0.82824609  0.02314575  0.54463810     0.17700
C2917       C  0.06164808  0.19569440  0.46343322    -0.27600
C2918       C  0.06066503  0.20979383  0.48565186     0.06100
C2919       C  0.08042658  0.22904459  0.49417289     0.25700
C2920       C  0.10054584  0.23414587  0.48054885    -0.12000
C2921       C  0.10163413  0.22031502  0.45791507    -0.26000
C2922       C  0.08186546  0.20085774  0.44961346     0.36500
C2923       C  0.03901601  0.20529721  0.49856203     0.06100
F2924       F  0.08021447  0.24352238  0.51476483    -0.19800
H2925       H  0.11530545  0.24933684  0.48745756     0.15900
F2926       F  0.08196940  0.18681099  0.42821078    -0.23500
H2927       H  0.04667009  0.18067828  0.45663931     0.17700
C2928       C  0.02137083  0.20140569  0.47908094     0.25700
C2929       C  0.00207912  0.19998632  0.49095001    -0.12000
C2930       C  0.99988102  0.20256265  0.52250729    -0.26000
C2931       C  0.01714375  0.20533810  0.54221641     0.36600
C2932       C  0.03642994  0.20664763  0.53027806    -0.27700
F2933       F  0.02333252  0.20047759  0.44828583    -0.19800
H2934       H  0.98920051  0.19781461  0.47507496     0.15900
F2935       F  0.01598674  0.20791074  0.57282688    -0.23500
H2936       H  0.04968723  0.20937682  0.54580689     0.17700
C2937       C  0.84155100  0.17744823  0.62546099    -0.27600
C2938       C  0.84148442  0.17716544  0.65771655     0.06100
C2939       C  0.85874071  0.17621236  0.67302048     0.25700
C2940       C  0.87499587  0.17453583  0.65652303    -0.12000
C2941       C  0.87473105  0.17406471  0.62433103    -0.26000
C2942       C  0.85802855  0.17596781  0.60885176     0.36500
C2943       C  0.82273809  0.17630248  0.67536450     0.06100
F2944       F  0.85989963  0.17688688  0.70405455    -0.19800
H2945       H  0.88786951  0.17352001  0.66907058     0.15900
F2946       F  0.85693559  0.17523942  0.57781689    -0.23500
H2947       H  0.82835679  0.17798588  0.61310299     0.17700
C2948       C  0.81529509  0.19139250  0.66976740     0.25700
C2949       C  0.79714702  0.18968014  0.68602432    -0.12000
C2950       C  0.78607439  0.17301874  0.70842620    -0.26000
C2951       C  0.79391139  0.15825640  0.71440068     0.36600
C2952       C  0.81188201  0.15985265  0.69792726    -0.27700
F2953       F  0.82584938  0.20809054  0.64908492    -0.19800
H2954       H  0.79186747  0.20158780  0.68117236     0.15900
F2955       F  0.78400905  0.14194566  0.73573925    -0.23500
H2956       H  0.81713688  0.14789287  0.70252479     0.17700
C2957       C  0.04894738  0.35791681  0.60887594    -0.27600
C2958       C  0.03802444  0.34824109  0.58126005     0.06100
C2959       C  0.03823927  0.36247630  0.55791544     0.25700
C2960       C  0.04824326  0.38552519  0.56285180    -0.12000
C2961       C  0.05792566  0.39491120  0.59122090    -0.26000
C2962       C  0.05869078  0.38081513  0.61391849     0.36500
C2963       C  0.02517871  0.32335367  0.57827563     0.06100
F2964       F  0.02749877  0.35408521  0.53104744    -0.19800
H2965       H  0.04729770  0.39584896  0.54499988     0.15900
F2966       F  0.06847012  0.38902434  0.64142008    -0.23500
H2967       H  0.04952499  0.34759240  0.62703782     0.17700
C2968       C  0.02580006  0.31250839  0.55143714     0.25700
C2969       C  0.01231681  0.28936097  0.54859046    -0.12000
C2970       C  0.99817540  0.27626024  0.57255667    -0.26000
C2971       C  0.99855362  0.28692158  0.60003800     0.36600
C2972       C  0.01174025  0.31013795  0.60269041    -0.27700
F2973       F  0.03959170  0.32415801  0.52801658    -0.19800
H2974       H  0.01278741  0.28167260  0.52728850     0.15900
F2975       F  0.98535123  0.27512232  0.62384211    -0.23500
H2976       H  0.01087849  0.31788587  0.62370705     0.17700
C2977       C  0.85523176  0.31078762  0.10808121    -0.27600
C2978       C  0.86962658  0.33381297  0.10574430     0.06100
C2979       C  0.87770106  0.34628404  0.13293511     0.25700
C2980       C  0.87150609  0.33573205  0.16168000    -0.12000
C2981       C  0.85694499  0.31262124  0.16392452    -0.26000
C2982       C  0.84900234  0.30027740  0.13656399     0.36500
C2983       C  0.87525793  0.34441126  0.07479778     0.06100
F2984       F  0.89180313  0.36859473  0.13176201    -0.19800
H2985       H  0.87795426  0.34569068  0.18218406     0.15900
F2986       F  0.83528627  0.27788003  0.13705867    -0.23500
H2987       H  0.84843985  0.30082341  0.08764504     0.17700
C2988       C  0.88137641  0.33514276  0.05066732     0.25700
C2989       C  0.88445146  0.34385165  0.02091759    -0.12000
C2990       C  0.88181676  0.36218790  0.01455779    -0.26000
C2991       C  0.87630270  0.37184789  0.03897582     0.36600
C2992       C  0.87297699  0.36295223  0.06857614    -0.27700
F2993       F  0.88463907  0.31776552  0.05592125    -0.19800
H2994       H  0.88916152  0.33637235  0.00290067     0.15900
F2995       F  0.87357935  0.38963048  0.03427795    -0.23500
H2996       H  0.86799018  0.37023785  0.08652633     0.17700
C2997       C  0.74360129  0.19186048  0.33205439    -0.27600
C2998       C  0.72369757  0.18579671  0.31666785     0.06100
C2999       C  0.72461467  0.19649952  0.28880788     0.25700
C3000       C  0.74510481  0.21237230  0.27628281    -0.12000
C3001       C  0.76512317  0.21796470  0.29124152    -0.26000
C3002       C  0.76403023  0.20764757  0.31965448     0.36500
C3003       C  0.70237344  0.16758853  0.32932681     0.06100
F3004       F  0.70569547  0.19173991  0.27376243    -0.19800
H3005       H  0.74528134  0.22006184  0.25462188     0.15900
F3006       F  0.78268067  0.21256969  0.33558918    -0.23500
H3007       H  0.74339506  0.18387505  0.35347425     0.17700
C3008       C  0.68785838  0.14946804  0.31096265     0.25700
C3009       C  0.66887987  0.13147502  0.32359758    -0.12000
C3010       C  0.66393926  0.13080559  0.35497697    -0.26000
C3011       C  0.67827486  0.14919366  0.37330609     0.36600
C3012       C  0.69724447  0.16730985  0.36053304    -0.27700
F3013       F  0.69265822  0.14846157  0.28112006    -0.19800
H3014       H  0.65840585  0.11764909  0.30877621     0.15900
F3015       F  0.67437098  0.14954625  0.40367812    -0.23500
H3016       H  0.70818019  0.18105076  0.37519190     0.17700
C3017       C  0.85712661  0.39764965  0.38740911    -0.27600
C3018       C  0.86933112  0.39698458  0.36223015     0.06100
C3019       C  0.88628266  0.41708025  0.35011264     0.25700
C3020       C  0.89089644  0.43737545  0.36278053    -0.12000
C3021       C  0.87877929  0.43832724  0.38798135    -0.26000
C3022       C  0.86168624  0.41808664  0.40015693     0.36500
C3023       C  0.86525764  0.37551494  0.34918197     0.06100
F3024       F  0.89897591  0.41706961  0.32658400    -0.19800
H3025       H  0.90431002  0.45243996  0.35287376     0.15900
F3026       F  0.84945764  0.41793233  0.42438811    -0.23500
H3027       H  0.84403336  0.38230189  0.39717323     0.17700
C3028       C  0.86796002  0.36035112  0.36727667     0.25700
C3029       C  0.86698309  0.34159337  0.35397408    -0.12000
C3030       C  0.86334688  0.33747752  0.32226614    -0.26000
C3031       C  0.85967719  0.35224307  0.30441444     0.36600
C3032       C  0.86070170  0.37105253  0.31780636    -0.27700
F3033       F  0.87292874  0.36438809  0.39748597    -0.19800
H3034       H  0.86994942  0.33072007  0.36850242     0.15900
F3035       F  0.85573995  0.34895888  0.27390008    -0.23500
H3036       H  0.85848381  0.38251881  0.30347980     0.17700
C3037       C  0.88807388  0.19839166  0.42002738    -0.27600
C3038       C  0.86859548  0.19819145  0.42867792     0.06100
C3039       C  0.86084089  0.19245312  0.45886723     0.25700
C3040       C  0.87324916  0.18847927  0.48045133    -0.12000
C3041       C  0.89363534  0.19035670  0.47231463    -0.26000
C3042       C  0.90055977  0.19458311  0.44159915     0.36500
C3043       C  0.85835097  0.20668713  0.40692957     0.06100
F3044       F  0.84174021  0.19152136  0.46772841    -0.19800
H3045       H  0.86747820  0.18512861  0.50392797     0.15900
F3046       F  0.91977093  0.19583043  0.43258111    -0.23500
H3047       H  0.89432911  0.20277549  0.39685494     0.17700
C3048       C  0.85610116  0.22502456  0.41491716     0.25700
C3049       C  0.85132301  0.23627747  0.39249509    -0.12000
C3050       C  0.84881433  0.22956031  0.36178814    -0.26000
C3051       C  0.84940600  0.21023173  0.35414374     0.36600
C3052       C  0.85420974  0.19895201  0.37662419    -0.27700
F3053       F  0.86062080  0.23341819  0.44373834    -0.19800
H3054       H  0.85085321  0.25106927  0.39889864     0.15900
F3055       F  0.84737183  0.20340174  0.32462998    -0.23500
H3056       H  0.85595561  0.18490388  0.37005926     0.17700
C3057       C  0.97018752  0.36255269  0.28128349    -0.27600
C3058       C  0.98029872  0.35987090  0.25524794     0.06100
C3059       C  0.96689981  0.34495704  0.23223143     0.25700
C3060       C  0.94380335  0.33257659  0.23572875    -0.12000
C3061       C  0.93379432  0.33465232  0.26237230    -0.26000
C3062       C  0.94718761  0.35012233  0.28487175     0.36500
C3063       C  0.00482537  0.37188315  0.25291737     0.06100
F3064       F  0.97623335  0.34137681  0.20725706    -0.19800
H3065       H  0.93388402  0.32047305  0.21843846     0.15900
F3066       F  0.93804790  0.35290313  0.31069806    -0.23500
H3067       H  0.98019093  0.37406518  0.29911012     0.17700
C3068       C  0.01555247  0.38473862  0.22697639     0.25700
C3069       C  0.03846634  0.39428215  0.22370747    -0.12000
C3070       C  0.05118979  0.39135992  0.24629973    -0.26000
C3071       C  0.04065510  0.37955349  0.27309516     0.36600
C3072       C  0.01762005  0.36989999  0.27631738    -0.27700
F3073       F  0.00382792  0.38786617  0.20464659    -0.19800
H3074       H  0.04625511  0.40357951  0.20302971     0.15900
F3075       F  0.05231372  0.37607313  0.29513814    -0.23500
H3076       H  0.00962218  0.36008649  0.29654983     0.17700
C3077       C  0.81341004  0.14989909  0.13525225    -0.27600
C3078       C  0.83021908  0.16214926  0.15681854     0.06100
C3079       C  0.84635837  0.15607629  0.16222957     0.25700
C3080       C  0.84537234  0.13797768  0.14696889    -0.12000
C3081       C  0.82851488  0.12558156  0.12553796    -0.26000
C3082       C  0.81261009  0.13193193  0.11956958     0.36500
C3083       C  0.83045780  0.18068137  0.17427548     0.06100
F3084       F  0.86341494  0.16789271  0.18186811    -0.19800
H3085       H  0.85811634  0.13384602  0.15176572     0.15900
F3086       F  0.79600536  0.12056415  0.09913728    -0.23500
H3087       H  0.80055974  0.15395423  0.13093272     0.17700
C3088       C  0.82677861  0.19659361  0.15962145     0.25700
C3089       C  0.82603038  0.21323028  0.17663958    -0.12000
C3090       C  0.82929649  0.21466093  0.20853819    -0.26000
C3091       C  0.83363212  0.19916353  0.22306738     0.36600
C3092       C  0.83395562  0.18227973  0.20613116    -0.27700
F3093       F  0.82423064  0.19631094  0.12878344    -0.19800
H3094       H  0.82298505  0.22512125  0.16475221     0.15900
F3095       F  0.83672517  0.19974378  0.25381019    -0.23500
H3096       H  0.83645039  0.17008457  0.21815876     0.17700
loop_ 
_geom_bond_atom_site_label_1 
_geom_bond_atom_site_label_2 
_geom_bond_distance 
_geom_bond_site_symmetry_2 
_ccdc_geom_bond_type 
O1           Ni7   1.932       .  S
O1           C22   1.275       .  A
O2          Ni25   1.898       .  S
O2           C11   1.264       .  A
O3           Ni7   1.907       .  S
O3          Ni25   1.906       .  S
O3          Ni19   1.929       .  S
O3           H26   0.966       .  S
C4           O21   1.283       .  A
C4           O13   1.279       .  A
C4         C3061   1.478       .  S
O5          Ni24   1.930       .  S
O5           C11   1.271       .  A
O6          Ni24   1.901       .  S
O6            C8   1.268       .  A
Ni7          O10   1.942       .  S
Ni7          O12   1.913       .  S
C8           O18   1.277       .  A
C8         C3030   1.495       .  S
O9          Ni25   1.906       .  S
O9           C15   1.270       .  A
O10          C15   1.279       .  A
C11        C3050   1.472       .  S
O12          C14   1.270       .  A
O13         Ni24   1.923       .  S
C14          O20   1.273       .  A
C14        C3090   1.486       .  S
C15        C3001   1.494       .  S
H16          O17   0.967       .  S
O17         Ni25   1.892       .  S
O17         Ni19   1.895       .  S
O17         Ni24   1.895       .  S
O18         Ni19   1.948       .  S
Ni19         O23   1.922       .  S
Ni19         O21   1.928       .  S
O20         Ni25   1.927       .  S
C22          O23   1.275       .  A
C22        C2981   1.494       .  S
O27         Ni33   1.926       .  S
O27          C48   1.273       .  A
O28         Ni51   1.891       .  S
O28          C37   1.264       .  A
O29         Ni33   1.909       .  S
O29         Ni51   1.905       .  S
O29         Ni45   1.932       .  S
O29          H52   0.966       .  S
C30          O47   1.285       .  A
C30          O39   1.279       .  A
C30        C2970   1.496       .  S
O31         Ni50   1.938       .  S
O31          C37   1.273       .  A
O32         Ni50   1.907       .  S
O32          C34   1.269       .  A
Ni33         O36   1.935       .  S
Ni33         O38   1.909       .  S
C34          O44   1.276       .  A
C34        C2930   1.493       .  S
O35         Ni51   1.919       .  S
O35          C41   1.272       .  A
O36          C41   1.276       .  A
C37        C3041   1.476       .  S
O38          C40   1.269       .  A
O39         Ni50   1.934       .  S
C40          O46   1.274       .  A
C40        C2941   1.489       .  S
C41        C2901   1.481       .  S
H42          O43   0.967       .  S
O43         Ni51   1.902       .  S
O43         Ni45   1.901       .  S
O43         Ni50   1.903       .  S
O44         Ni45   1.947       .  S
Ni45         O49   1.925       .  S
Ni45         O47   1.936       .  S
O46         Ni51   1.939       .  S
C48          O49   1.276       .  A
C48        C2890   1.492       .  S
O53         Ni59   1.926       .  S
O53          C74   1.273       .  A
O54         Ni77   1.907       .  S
O54          C63   1.269       .  A
O55         Ni59   1.897       .  S
O55         Ni77   1.903       .  S
O55         Ni71   1.929       .  S
O55          H78   0.966       .  S
C56          O73   1.285       .  A
C56          O65   1.280       .  A
C56        C2821   1.496       .  S
O57         Ni76   1.935       .  S
O57          C63   1.274       .  A
O58         Ni76   1.905       .  S
O58          C60   1.269       .  A
Ni59         O62   1.928       .  S
Ni59         O64   1.908       .  S
C60          O70   1.279       .  A
C60        C2801   1.498       .  S
O61         Ni77   1.924       .  S
O61          C67   1.275       .  A
O62          C67   1.277       .  A
C63        C2841   1.483       .  S
O64          C66   1.270       .  A
O65         Ni76   1.930       .  S
C66          O72   1.276       .  A
C66        C2861   1.491       .  S
C67        C2781   1.491       .  S
H68          O69   0.966       .  S
O69         Ni77   1.899       .  S
O69         Ni71   1.898       .  S
O69         Ni76   1.891       .  S
O70         Ni71   1.956       .  S
Ni71         O75   1.926       .  S
Ni71         O73   1.938       .  S
O72         Ni77   1.936       .  S
C74          O75   1.278       .  A
C74        C2990   1.492   1_556  S
O79         Ni85   1.937       .  S
O79         C100   1.277       .  A
O80        Ni103   1.900       .  S
O80          C89   1.267       .  A
O81         Ni85   1.901       .  S
O81        Ni103   1.901       .  S
O81         Ni97   1.925       .  S
O81         H104   0.966       .  S
C82          O99   1.283       .  A
C82          O91   1.281       .  A
C82        C2961   1.495       .  S
O83        Ni102   1.942       .  S
O83          C89   1.276       .  A
O84        Ni102   1.913       .  S
O84          C86   1.270       .  A
Ni85         O88   1.936       .  S
Ni85         O90   1.916       .  S
C86          O96   1.274       .  A
C86        C2741   1.491       .  S
O87        Ni103   1.916       .  S
O87          C93   1.273       .  A
O88          C93   1.278       .  A
C89        C2850   1.482       .  S
O90          C92   1.272       .  A
O91        Ni102   1.939       .  S
C92          O98   1.276       .  A
C92        C2761   1.492       .  S
C93        C2730   1.494       .  S
H94          O95   0.967       .  S
O95        Ni103   1.898       .  S
O95         Ni97   1.897       .  S
O95        Ni102   1.898       .  S
O96         Ni97   1.939       .  S
Ni97        O101   1.915       .  S
Ni97         O99   1.930       .  S
O98        Ni103   1.934       .  S
C100        O101   1.274       .  A
C100       C2701   1.491       .  S
O105       Ni111   1.927       .  S
O105        C126   1.275       .  A
O106       Ni129   1.901       .  S
O106        C115   1.266   1_556  A
O107       Ni111   1.902       .  S
O107       Ni129   1.900       .  S
O107       Ni123   1.930       .  S
O107        H130   0.966       .  S
C108        O125   1.286       .  A
C108        O117   1.280       .  A
C108       C2830   1.487   1_455  S
O109       Ni128   1.936   1_554  S
O109        C115   1.273       .  A
O110       Ni128   1.914       .  S
O110        C112   1.270       .  A
Ni111       O114   1.938       .  S
Ni111       O116   1.916       .  S
C112        O122   1.273       .  A
C112       C2650   1.490   1_455  S
O113       Ni129   1.913       .  S
O113        C119   1.274       .  A
O114        C119   1.278       .  A
C115       C2661   1.479       .  S
O116        C118   1.271       .  A
O117       Ni128   1.928       .  S
C118        O124   1.275       .  A
C118       C2690   1.491       .  S
C119       C2630   1.494       .  S
H120        O121   0.966       .  S
O121       Ni129   1.902       .  S
O121       Ni123   1.902       .  S
O121       Ni128   1.900       .  S
O122       Ni123   1.935       .  S
Ni123       O127   1.922       .  S
Ni123       O125   1.940       .  S
O124       Ni129   1.935       .  S
C126        O127   1.276       .  A
C126       C2881   1.488       .  S
O131       Ni137   1.932       .  S
O131        C152   1.274       .  A
O132       Ni155   1.908       .  S
O132        C141   1.268       .  A
O133       Ni137   1.905       .  S
O133       Ni155   1.907       .  S
O133       Ni149   1.923       .  S
O133        H156   0.966       .  S
C134        O151   1.280       .  A
C134        O143   1.277       .  A
C134       C3070   1.479       .  S
O135       Ni154   1.932       .  S
O135        C141   1.271       .  A
O136       Ni154   1.898       .  S
O136        C138   1.268       .  A
Ni137       O140   1.932       .  S
Ni137       O142   1.902       .  S
C138        O148   1.278       .  A
C138       C2581   1.489       .  S
O139       Ni155   1.916       .  S
O139        C145   1.274       .  A
O140        C145   1.277       .  A
C141       C2670   1.482       .  S
O142        C144   1.268       .  A
O143       Ni154   1.923       .  S
C144        O150   1.274       .  A
C144       C2610   1.485       .  S
C145       C2570   1.477       .  S
H146        O147   0.966       .  S
O147       Ni155   1.901       .  S
O147       Ni149   1.908       .  S
O147       Ni154   1.902       .  S
O148       Ni149   1.950       .  S
Ni149       O153   1.929       .  S
Ni149       O151   1.925       .  S
O150       Ni155   1.935       .  S
C152        O153   1.276       .  A
C152       C2710   1.498       .  S
O157       Ni163   1.932       .  S
O157        C178   1.272       .  A
O158       Ni181   1.922       .  S
O158        C167   1.276       .  A
O159       Ni163   1.897       .  S
O159       Ni181   1.903       .  S
O159       Ni175   1.901       .  S
O159        H182   0.967       .  S
C160        O177   1.274       .  A
C160        O169   1.279       .  A
C160       C2490   1.493       .  S
O161       Ni180   1.933       .  S
O161        C167   1.276       .  A
O162       Ni180   1.912       .  S
O162        C164   1.271       .  A
Ni163       O166   1.925       .  S
Ni163       O168   1.902       .  S
C164        O174   1.275       .  A
C164       C2541   1.493       .  S
O165       Ni181   1.938       .  S
O165        C171   1.284       .  A
O166        C171   1.278       .  A
C167       C2461   1.494       .  S
O168        C170   1.268       .  A
O169       Ni180   1.936       .  S
C170        O176   1.277       .  A
C170       C2721   1.492       .  S
C171       C2501   1.491       .  S
H172        O173   0.966       .  S
O173       Ni181   1.925       .  S
O173       Ni175   1.900       .  S
O173       Ni180   1.898       .  S
O174       Ni175   1.936       .  S
Ni175       O179   1.903       .  S
Ni175       O177   1.915       .  S
O176       Ni181   1.949       .  S
C178        O179   1.267       .  A
C178       C2521   1.481       .  S
O183       Ni189   1.922       .  S
O183        C204   1.269       .  A
O184       Ni207   1.922       .  S
O184        C193   1.277       .  A
O185       Ni189   1.893       .  S
O185       Ni207   1.896       .  S
O185       Ni201   1.900       .  S
O185        H208   0.967       .  S
C186        O203   1.272       .  A
C186        O195   1.280       .  A
C186       C2381   1.499       .  S
O187       Ni206   1.946       .  S
O187        C193   1.280       .  A
O188       Ni206   1.915       .  S
O188        C190   1.271       .  A
Ni189       O192   1.926       .  S
Ni189       O194   1.898       .  S
C190        O200   1.277       .  A
C190       C2430   1.483       .  S
O191       Ni207   1.942       .  S
O191        C197   1.286       .  A
O192        C197   1.280       .  A
C193       C2361   1.502       .  S
O194        C196   1.266       .  A
O195       Ni206   1.946       .  S
C196        O202   1.275       .  A
C196       C2401   1.491   1_455  S
C197       C2441   1.490   1_455  S
H198        O199   0.966       .  S
O199       Ni207   1.932       .  S
O199       Ni201   1.904       .  S
O199       Ni206   1.901       .  S
O200       Ni201   1.936       .  S
Ni201       O205   1.916       .  S
Ni201       O203   1.913       .  S
O202       Ni207   1.946       .  S
C204        O205   1.269       .  A
C204       C2530   1.483       .  S
O209       Ni215   1.939       .  S
O209        C230   1.275       .  A
O210       Ni233   1.913       .  S
O210        C219   1.271       .  A
O211       Ni215   1.896       .  S
O211       Ni233   1.894       .  S
O211       Ni227   1.896       .  S
O211        H234   0.967       .  S
C212        O229   1.273       .  A
C212        O221   1.280       .  A
C212       C2301   1.498       .  S
O213       Ni232   1.939       .  S
O213        C219   1.277       .  A
O214       Ni232   1.913       .  S
O214        C216   1.270       .  A
Ni215       O218   1.929       .  S
Ni215       O220   1.908       .  S
C216        O226   1.273       .  A
C216       C2321   1.486       .  S
O217       Ni233   1.937       .  S
O217        C223   1.285       .  A
O218        C223   1.280       .  A
C219       C2290   1.476       .  S
O220        C222   1.270       .  A
O221       Ni232   1.941       .  S
C222        O228   1.274       .  A
C222       C2790   1.491       .  S
C223       C2510   1.487       .  S
H224        O225   0.966       .  S
O225       Ni233   1.926       .  S
O225       Ni227   1.898       .  S
O225       Ni232   1.904       .  S
O226       Ni227   1.929       .  S
Ni227       O231   1.889       .  S
Ni227       O229   1.917       .  S
O228       Ni233   1.937       .  S
C230        O231   1.264       .  A
C230       C2341   1.474       .  S
O235       Ni241   1.931   1_556  S
O235        C256   1.272       .  A
O236       Ni259   1.926       .  S
O236        C245   1.277       .  A
O237       Ni241   1.892       .  S
O237       Ni259   1.895       .  S
O237       Ni253   1.893       .  S
O237        H260   0.966       .  S
C238        O255   1.270       .  A
C238        O247   1.280       .  A
C238       C2210   1.494       .  S
O239       Ni258   1.943       .  S
O239        C245   1.278       .  A
O240       Ni258   1.913       .  S
O240        C242   1.272       .  A
Ni241       O244   1.922       .  S
Ni241       O246   1.908       .  S
C242        O252   1.275       .  A
C242       C2250   1.488       .  S
O243       Ni259   1.943       .  S
O243        C249   1.288       .  A
O244        C249   1.279       .  A
C245       C2370   1.503       .  S
O246        C248   1.268       .  A
O247       Ni258   1.950       .  S
C248        O254   1.276       .  A
C248       C2230   1.495       .  S
C249       C2261   1.495       .  S
H250        O251   0.966       .  S
O251       Ni259   1.936       .  S
O251       Ni253   1.907       .  S
O251       Ni258   1.906       .  S
O252       Ni253   1.930       .  S
Ni253       O257   1.904       .  S
Ni253       O255   1.906       .  S
O254       Ni259   1.944       .  S
C256        O257   1.266   1_556  A
C256       C2350   1.478       .  S
O261       Ni267   1.931       .  S
O261        C282   1.272       .  A
O262       Ni285   1.927       .  S
O262        C271   1.275       .  A
O263       Ni267   1.903       .  S
O263       Ni285   1.903       .  S
O263       Ni279   1.903       .  S
O263        H286   0.966       .  S
C264        O281   1.271       .  A
C264        O273   1.276       .  A
C264       C2590   1.492       .  S
O265       Ni284   1.925       .  S
O265        C271   1.272       .  A
O266       Ni284   1.904       .  S
O266        C268   1.268       .  A
Ni267       O270   1.919       .  S
Ni267       O272   1.913       .  S
C268        O278   1.273       .  A
C268       C2870   1.478       .  S
O269       Ni285   1.943       .  S
O269        C275   1.286       .  A
O270        C275   1.277       .  A
C271       C2470   1.496   1_554  S
O272        C274   1.270       .  A
O273       Ni284   1.936       .  S
C274        O280   1.273       .  A
C274       C2170   1.493       .  S
C275       C2270   1.483       .  S
H276        O277   0.966       .  S
O277       Ni285   1.939       .  S
O277       Ni279   1.912       .  S
O277       Ni284   1.911       .  S
O278       Ni279   1.929       .  S
Ni279       O283   1.903       .  S
Ni279       O281   1.910       .  S
O280       Ni285   1.930       .  S
C282        O283   1.264       .  A
C282       C2181   1.479       .  S
O287       Ni293   1.936       .  S
O287        C308   1.274       .  A
O288       Ni311   1.917       .  S
O288        C297   1.273       .  A
O289       Ni293   1.898       .  S
O289       Ni311   1.898       .  S
O289       Ni305   1.898       .  S
O289        H312   0.957       .  S
C290        O307   1.273       .  A
C290        O299   1.279       .  A
C290       C3021   1.497       .  S
O291       Ni310   1.934       .  S
O291        C297   1.275       .  A
O292       Ni310   1.907       .  S
O292        C294   1.270       .  A
Ni293       O296   1.936       .  S
Ni293       O298   1.906       .  S
C294        O304   1.278       .  A
C294       C2770   1.491       .  S
O295       Ni311   1.934       .  S
O295        C301   1.284       .  A
O296        C301   1.281       .  A
C297       C2281   1.484       .  S
O298        C300   1.267       .  A
O299       Ni310   1.943       .  S
C300        O306   1.275       .  A
C300       C2141   1.485       .  S
C301       C2450   1.495       .  S
H302        O303   0.969       .  S
O303       Ni311   1.931       .  S
O303       Ni305   1.905       .  S
O303       Ni310   1.906       .  S
O304       Ni305   1.941       .  S
Ni305       O309   1.904       .  S
Ni305       O307   1.912       .  S
O306       Ni311   1.947       .  S
C308        O309   1.269       .  A
C308       C2190   1.484       .  S
O313       Ni319   1.929       .  S
O313        C334   1.274       .  A
O314       Ni337   1.906       .  S
O314        C323   1.266       .  A
O315       Ni319   1.914       .  S
O315       Ni337   1.914       .  S
O315       Ni331   1.934       .  S
O315        H338   0.966       .  S
C316        O333   1.282       .  A
C316        O325   1.277       .  A
C316       C2130   1.477       .  S
O317       Ni336   1.928       .  S
O317        C323   1.269       .  A
O318       Ni336   1.905       .  S
O318        C320   1.269       .  A
Ni319       O322   1.937       .  S
Ni319       O324   1.896       .  S
C320        O330   1.273       .  A
C320       C2090   1.490       .  S
O321       Ni337   1.905       .  S
O321        C327   1.268       .  A
O322        C327   1.275       .  A
C323       C2101   1.478       .  S
O324        C326   1.268       .  A
O325       Ni336   1.919       .  S
C326        O332   1.277       .  A
C326       C2241   1.487       .  S
C327       C2150   1.478       .  S
H328        O329   0.966       .  S
O329       Ni337   1.899       .  S
O329       Ni331   1.901       .  S
O329       Ni336   1.905       .  S
O330       Ni331   1.932       .  S
Ni331       O335   1.916       .  S
Ni331       O333   1.933       .  S
O332       Ni337   1.942       .  S
C334        O335   1.272       .  A
C334       C2070   1.493       .  S
O339       Ni345   1.932       .  S
O339        C360   1.276       .  A
O340       Ni363   1.903       .  S
O340        C349   1.266       .  A
O341       Ni345   1.904       .  S
O341       Ni363   1.904       .  S
O341       Ni357   1.932       .  S
O341        H364   0.966       .  S
C342        O359   1.286       .  A
C342        O351   1.281       .  A
C342       C2050   1.491       .  S
O343       Ni362   1.931       .  S
O343        C349   1.273       .  A
O344       Ni362   1.910       .  S
O344        C346   1.269       .  A
Ni345       O348   1.942       .  S
Ni345       O350   1.914       .  S
C346        O356   1.276       .  A
C346       C2021   1.495       .  S
O347       Ni363   1.908       .  S
O347        C353   1.271       .  A
O348        C353   1.279       .  A
C349       C2110   1.479       .  S
O350        C352   1.271       .  A
O351       Ni362   1.928       .  S
C352        O358   1.274       .  A
C352       C2330   1.485       .  S
C353       C2410   1.493       .  S
H354        O355   0.966       .  S
O355       Ni363   1.897       .  S
O355       Ni357   1.892       .  S
O355       Ni362   1.895       .  S
O356       Ni357   1.942       .  S
Ni357       O361   1.924       .  S
Ni357       O359   1.934       .  S
O358       Ni363   1.927       .  S
C360        O361   1.276       .  A
C360       C2001   1.496       .  S
O365       Ni371   1.932       .  S
O365        C386   1.274       .  A
O366       Ni389   1.903       .  S
O366        C375   1.267       .  A
O367       Ni371   1.907       .  S
O367       Ni389   1.907       .  S
O367       Ni383   1.922       .  S
O367        H390   0.966       .  S
C368        O385   1.280       .  A
C368        O377   1.280       .  A
C368       C1941   1.485       .  S
O369       Ni388   1.943   1_554  S
O369        C375   1.276   1_554  A
O370       Ni388   1.911       .  S
O370        C372   1.270       .  A
Ni371       O374   1.934       .  S
Ni371       O376   1.911       .  S
C372        O382   1.278       .  A
C372       C2201   1.491       .  S
O373       Ni389   1.910       .  S
O373        C379   1.273       .  A
O374        C379   1.277       .  A
C375       C1961   1.482   1_556  S
O376        C378   1.270       .  A
O377       Ni388   1.938       .  S
C378        O384   1.272       .  A
C378       C1981   1.479       .  S
C379       C1930   1.490       .  S
H380        O381   0.967       .  S
O381       Ni389   1.895       .  S
O381       Ni383   1.900       .  S
O381       Ni388   1.898       .  S
O382       Ni383   1.950       .  S
Ni383       O387   1.923       .  S
Ni383       O385   1.919       .  S
O384       Ni389   1.922       .  S
C386        O387   1.275       .  A
C386       C2010   1.496       .  S
O391       Ni397   1.932       .  S
O391        C412   1.275       .  A
O392       Ni415   1.908       .  S
O392        C401   1.267       .  A
O393       Ni397   1.907       .  S
O393       Ni415   1.912       .  S
O393       Ni409   1.929       .  S
O393        H416   0.966       .  S
C394        O411   1.284       .  A
C394        O403   1.279       .  A
C394       C2121   1.489       .  S
O395       Ni414   1.932       .  S
O395        C401   1.271       .  A
O396       Ni414   1.900       .  S
O396        C398   1.267       .  A
Ni397       O400   1.944       .  S
Ni397       O402   1.914       .  S
C398        O408   1.279       .  A
C398       C1861   1.497       .  S
O399       Ni415   1.898       .  S
O399        C405   1.270       .  A
O400        C405   1.278       .  A
C401       C1970   1.483       .  S
O402        C404   1.270       .  A
O403       Ni414   1.921       .  S
C404        O410   1.274       .  A
C404       C1910   1.482       .  S
C405       C1881   1.493       .  S
H406        O407   0.967       .  S
O407       Ni415   1.891       .  S
O407       Ni409   1.904       .  S
O407       Ni414   1.897       .  S
O408       Ni409   1.954       .  S
Ni409       O413   1.936       .  S
Ni409       O411   1.931       .  S
O410       Ni415   1.934       .  S
C412        O413   1.279       .  A
C412       C1841   1.503       .  S
O417       Ni423   1.929       .  S
O417        C438   1.274       .  A
O418       Ni441   1.910       .  S
O418        C427   1.266       .  A
O419       Ni423   1.904       .  S
O419       Ni441   1.909       .  S
O419       Ni435   1.933       .  S
O419        H442   0.966       .  S
C420        O437   1.286       .  A
C420        O429   1.277       .  A
C420       C2041   1.482       .  S
O421       Ni440   1.926       .  S
O421        C427   1.270       .  A
O422       Ni440   1.901       .  S
O422        C424   1.268       .  A
Ni423       O426   1.937       .  S
Ni423       O428   1.900       .  S
C424        O434   1.278       .  A
C424       C1790   1.493       .  S
O425       Ni441   1.910       .  S
O425        C431   1.272       .  A
O426        C431   1.278       .  A
C427       C1821   1.482       .  S
O428        C430   1.269       .  A
O429       Ni440   1.915       .  S
C430        O436   1.275       .  A
C430       C1810   1.490       .  S
C431       C1761   1.483       .  S
H432        O433   0.962       .  S
O433       Ni441   1.903       .  S
O433       Ni435   1.907       .  S
O433       Ni440   1.897       .  S
O434       Ni435   1.945       .  S
Ni435       O439   1.939       .  S
Ni435       O437   1.944       .  S
O436       Ni441   1.940       .  S
C438        O439   1.280       .  A
C438       C1850   1.505       .  S
O443       Ni449   1.940       .  S
O443        C464   1.278       .  A
O444       Ni467   1.892       .  S
O444        C453   1.264       .  A
O445       Ni449   1.906       .  S
O445       Ni467   1.899       .  S
O445       Ni461   1.927       .  S
O445        H468   0.966       .  S
C446        O463   1.283       .  A
C446        O455   1.278       .  A
C446       C1950   1.472       .  S
O447       Ni466   1.940       .  S
O447        C453   1.274       .  A
O448       Ni466   1.912       .  S
O448        C450   1.271       .  A
Ni449       O452   1.945       .  S
Ni449       O454   1.914       .  S
C450        O460   1.274       .  A
C450       C2310   1.494       .  S
O451       Ni467   1.907       .  S
O451        C457   1.272       .  A
O452        C457   1.280       .  A
C453       C1830   1.473       .  S
O454        C456   1.271       .  A
O455       Ni466   1.924       .  S
C456        O462   1.274       .  A
C456       C1741   1.493       .  S
C457       C1721   1.495       .  S
H458        O459   0.966       .  S
O459       Ni467   1.896       .  S
O459       Ni461   1.896       .  S
O459       Ni466   1.898       .  S
O460       Ni461   1.938       .  S
Ni461       O465   1.911       .  S
Ni461       O463   1.933       .  S
O462       Ni467   1.930       .  S
C464        O465   1.273       .  A
C464       C2061   1.490   1_556  S
O469       Ni475   1.925       .  S
O469        C490   1.269       .  A
O470       Ni493   1.927       .  S
O470        C479   1.277       .  A
O471       Ni475   1.892       .  S
O471       Ni493   1.897       .  S
O471       Ni487   1.894       .  S
O471        H494   0.966       .  S
C472        O489   1.272       .  A
C472        O481   1.277       .  A
C472       C2081   1.489       .  S
O473       Ni492   1.932       .  S
O473        C479   1.276       .  A
O474       Ni492   1.907       .  S
O474        C476   1.270       .  A
Ni475       O478   1.924       .  S
Ni475       O480   1.901       .  S
C476        O486   1.275       .  A
C476       C1801   1.480       .  S
O477       Ni493   1.931       .  S
O477        C483   1.285       .  A
O478        C483   1.280       .  A
C479       C1641   1.498       .  S
O480        C482   1.265       .  A
O481       Ni492   1.936       .  S
C482        O488   1.274       .  A
C482       C1661   1.469       .  S
C483       C1710   1.476       .  S
H484        O485   0.966       .  S
O485       Ni493   1.935       .  S
O485       Ni487   1.909       .  S
O485       Ni492   1.907       .  S
O486       Ni487   1.932       .  S
Ni487       O491   1.913       .  S
Ni487       O489   1.908       .  S
O488       Ni493   1.938       .  S
C490        O491   1.269       .  A
C490       C1681   1.480       .  S
O495       Ni501   1.936       .  S
O495        C516   1.274       .  A
O496       Ni519   1.923       .  S
O496        C505   1.275       .  A
O497       Ni501   1.895       .  S
O497       Ni519   1.898       .  S
O497       Ni513   1.899       .  S
O497        H520   0.963       .  S
C498        O515   1.275       .  A
C498        O507   1.280       .  A
C498       C1870   1.498       .  S
O499       Ni518   1.937       .  S
O499        C505   1.276       .  A
O500       Ni518   1.917       .  S
O500        C502   1.270       .  A
Ni501       O504   1.929       .  S
Ni501       O506   1.909       .  S
C502        O512   1.271       .  A
C502       C1750   1.478       .  S
O503       Ni519   1.931       .  S
O503        C509   1.284       .  A
O504        C509   1.280       .  A
C505       C1601   1.483   1_554  S
O506        C508   1.269       .  A
O507       Ni518   1.938       .  S
C508        O514   1.276       .  A
C508       C2561   1.484       .  S
C509       C1630   1.483       .  S
H510        O511   0.968       .  S
O511       Ni519   1.927       .  S
O511       Ni513   1.900       .  S
O511       Ni518   1.907       .  S
O512       Ni513   1.924       .  S
Ni513       O517   1.903       .  S
Ni513       O515   1.920       .  S
O514       Ni519   1.943       .  S
C516        O517   1.267       .  A
C516       C1690   1.480       .  S
O521       Ni527   1.937       .  S
O521        C542   1.275       .  A
O522       Ni545   1.924       .  S
O522        C531   1.275       .  A
O523       Ni527   1.896       .  S
O523       Ni545   1.901       .  S
O523       Ni539   1.894       .  S
O523        H546   0.966       .  S
C524        O541   1.271       .  A
C524        O533   1.279       .  A
C524       C2921   1.492       .  S
O525       Ni544   1.937       .  S
O525        C531   1.275       .  A
O526       Ni544   1.906       .  S
O526        C528   1.269       .  A
Ni527       O530   1.935       .  S
Ni527       O532   1.906       .  S
C528        O538   1.275       .  A
C528       C2601   1.480       .  S
O529       Ni545   1.921       .  S
O529        C535   1.280       .  A
O530        C535   1.279       .  A
C531       C1550   1.498       .  S
O532        C534   1.267       .  A
O533       Ni544   1.941       .  S
C534        O540   1.277       .  A
C534       C1570   1.485       .  S
C535       C1701   1.489       .  S
H536        O537   0.966       .  S
O537       Ni545   1.924       .  S
O537       Ni539   1.907       .  S
O537       Ni544   1.903       .  S
O538       Ni539   1.931       .  S
Ni539       O543   1.904       .  S
Ni539       O541   1.906       .  S
O540       Ni545   1.949       .  S
C542        O543   1.268       .  A
C542       C1581   1.485       .  S
O547       Ni553   1.945       .  S
O547        C568   1.277       .  A
O548       Ni571   1.929       .  S
O548        C557   1.277       .  A
O549       Ni553   1.896       .  S
O549       Ni571   1.898       .  S
O549       Ni565   1.892       .  S
O549        H572   0.964       .  S
C550        O567   1.274       .  A
C550        O559   1.278       .  A
C550       C2750   1.490       .  S
O551       Ni570   1.930       .  S
O551        C557   1.274       .  A
O552       Ni570   1.920       .  S
O552        C554   1.271       .  A
Ni553       O556   1.940       .  S
Ni553       O558   1.912       .  S
C554        O564   1.273       .  A
C554       C2681   1.495       .  S
O555       Ni571   1.921       .  S
O555        C561   1.283       .  A
O556        C561   1.282       .  A
C557       C1610   1.483       .  S
O558        C560   1.269       .  A
O559       Ni570   1.935       .  S
C560        O566   1.276       .  A
C560       C1770   1.482       .  S
C561       C1530   1.476       .  S
H562        O563   0.967       .  S
O563       Ni571   1.919       .  S
O563       Ni565   1.897       .  S
O563       Ni570   1.901       .  S
O564       Ni565   1.932       .  S
Ni565       O569   1.894       .  S
Ni565       O567   1.912       .  S
O566       Ni571   1.945       .  S
C568        O569   1.266       .  A
C568       C1590   1.478       .  S
O573       Ni579   1.941   1_556  S
O573        C594   1.275       .  A
O574       Ni597   1.923       .  S
O574        C583   1.276       .  A
O575       Ni579   1.896       .  S
O575       Ni597   1.899       .  S
O575       Ni591   1.898       .  S
O575        H598   0.961       .  S
C576        O593   1.274       .  A
C576        O585   1.278       .  A
C576       C1470   1.491       .  S
O577       Ni596   1.935       .  S
O577        C583   1.276       .  A
O578       Ni596   1.911       .  S
O578        C580   1.270       .  A
Ni579       O582   1.931       .  S
Ni579       O584   1.908       .  S
C580        O590   1.273       .  A
C580       C1501   1.482       .  S
O581       Ni597   1.925       .  S
O581        C587   1.281       .  A
O582        C587   1.279       .  A
C583       C1541   1.495       .  S
O584        C586   1.270       .  A
O585       Ni596   1.933       .  S
C586        O592   1.279       .  A
C586       C2621   1.495       .  S
C587       C1621   1.487       .  S
H588        O589   0.969       .  S
O589       Ni597   1.924       .  S
O589       Ni591   1.902       .  S
O589       Ni596   1.902       .  S
O590       Ni591   1.926       .  S
Ni591       O595   1.903       .  S
Ni591       O593   1.918       .  S
O592       Ni597   1.950       .  S
C594        O595   1.267   1_556  A
C594       C1490   1.480       .  S
O599       Ni605   1.929       .  S
O599        C620   1.270       .  A
O600       Ni623   1.924       .  S
O600        C609   1.276       .  A
O601       Ni605   1.893       .  S
O601       Ni623   1.904       .  S
O601       Ni617   1.894       .  S
O601        H624   0.967       .  S
C602        O619   1.269       .  A
C602        O611   1.278       .  A
C602       C1421   1.492       .  S
O603       Ni622   1.933       .  S
O603        C609   1.275       .  A
O604       Ni622   1.909       .  S
O604        C606   1.270       .  A
Ni605       O608   1.917       .  S
Ni605       O610   1.899       .  S
C606        O616   1.275       .  A
C606       C1441   1.480       .  S
O607       Ni623   1.938       .  S
O607        C613   1.284       .  A
O608        C613   1.277       .  A
C609       C1650   1.497       .  S
O610        C612   1.266       .  A
O611       Ni622   1.940       .  S
C612        O618   1.277       .  A
C612       C1730   1.494       .  S
C613       C1521   1.493       .  S
H614        O615   0.966       .  S
O615       Ni623   1.931       .  S
O615       Ni617   1.911       .  S
O615       Ni622   1.906       .  S
O616       Ni617   1.934       .  S
Ni617       O621   1.913       .  S
Ni617       O619   1.902       .  S
O618       Ni623   1.950       .  S
C620        O621   1.268       .  A
C620       C1481   1.485       .  S
O625       Ni631   1.936       .  S
O625        C646   1.273       .  A
O626       Ni649   1.926       .  S
O626        C635   1.277       .  A
O627       Ni631   1.895       .  S
O627       Ni649   1.900       .  S
O627       Ni643   1.897       .  S
O627        H650   0.967       .  S
C628        O645   1.273       .  A
C628        O637   1.281       .  A
C628       C1341   1.498       .  S
O629       Ni648   1.937       .  S
O629        C635   1.276       .  A
O630       Ni648   1.908       .  S
O630        C632   1.270       .  A
Ni631       O634   1.924       .  S
Ni631       O636   1.905       .  S
C632        O642   1.273       .  A
C632       C1401   1.485       .  S
O633       Ni649   1.937       .  S
O633        C639   1.285       .  A
O634        C639   1.279       .  A
C635       C1321   1.486   1_554  S
O636        C638   1.268       .  A
O637       Ni648   1.943       .  S
C638        O644   1.276       .  A
C638       C1890   1.493       .  S
C639       C1390   1.487       .  S
H640        O641   0.966       .  S
O641       Ni649   1.926       .  S
O641       Ni643   1.897       .  S
O641       Ni648   1.898       .  S
O642       Ni643   1.931       .  S
Ni643       O647   1.899       .  S
Ni643       O645   1.915       .  S
O644       Ni649   1.945       .  S
C646        O647   1.266       .  A
C646       C1361   1.476       .  S
O651       Ni657   1.926       .  S
O651        C672   1.271       .  A
O652       Ni675   1.927       .  S
O652        C661   1.277       .  A
O653       Ni657   1.892       .  S
O653       Ni675   1.898       .  S
O653       Ni669   1.896       .  S
O653        H676   0.967       .  S
C654        O671   1.273       .  A
C654        O663   1.278       .  A
C654       C1261   1.498       .  S
O655       Ni674   1.937       .  S
O655        C661   1.276       .  A
O656       Ni674   1.910       .  S
O656        C658   1.270       .  A
Ni657       O660   1.916       .  S
Ni657       O662   1.908       .  S
C658        O668   1.276       .  A
C658       C1281   1.488       .  S
O659       Ni675   1.942       .  S
O659        C665   1.287       .  A
O660        C665   1.278       .  A
C661       C1241   1.499       .  S
O662        C664   1.269       .  A
O663       Ni674   1.941       .  S
C664        O670   1.274       .  A
C664       C3010   1.493       .  S
C665       C1310   1.478       .  S
H666        O667   0.966       .  S
O667       Ni675   1.935       .  S
O667       Ni669   1.910       .  S
O667       Ni674   1.904       .  S
O668       Ni669   1.932       .  S
Ni669       O673   1.912       .  S
Ni669       O671   1.915       .  S
O670       Ni675   1.937       .  S
C672        O673   1.268       .  A
C672       C1370   1.481       .  S
O677       Ni683   1.937   1_556  S
O677        C698   1.274       .  A
O678       Ni701   1.922       .  S
O678        C687   1.274       .  A
O679       Ni683   1.897       .  S
O679       Ni701   1.905       .  S
O679       Ni695   1.898       .  S
O679        H702   0.967       .  S
C680        O697   1.274       .  A
C680        O689   1.279       .  A
C680       C2641   1.487       .  S
O681       Ni700   1.932       .  S
O681        C687   1.275       .  A
O682       Ni700   1.913       .  S
O682        C684   1.271       .  A
Ni683       O686   1.934       .  S
Ni683       O688   1.900       .  S
C684        O694   1.274       .  A
C684       C3081   1.490       .  S
O685       Ni701   1.919       .  S
O685        C691   1.279       .  A
O686        C691   1.279       .  A
C687       C1210   1.488       .  S
O688        C690   1.266       .  A
O689       Ni700   1.933       .  S
C690        O696   1.277       .  A
C690       C1921   1.488       .  S
C691       C1381   1.484   1_545  S
H692        O693   0.966       .  S
O693       Ni701   1.914       .  S
O693       Ni695   1.896       .  S
O693       Ni700   1.895       .  S
O694       Ni695   1.933       .  S
Ni695       O699   1.903       .  S
Ni695       O697   1.909       .  S
O696       Ni701   1.948       .  S
C698        O699   1.268   1_556  A
C698       C1221   1.482       .  S
O703       Ni709   1.938       .  S
O703        C724   1.274       .  A
O704       Ni727   1.932       .  S
O704        C713   1.281       .  A
O705       Ni709   1.897       .  S
O705       Ni727   1.902       .  S
O705       Ni721   1.902       .  S
O705        H728   0.966       .  S
C706        O723   1.274       .  A
C706        O715   1.280       .  A
C706       C2810   1.499       .  S
O707       Ni726   1.935       .  S
O707        C713   1.278       .  A
O708       Ni726   1.921       .  S
O708        C710   1.272       .  A
Ni709       O712   1.925       .  S
Ni709       O714   1.913       .  S
C710        O720   1.276       .  A
C710       C2950   1.495       .  S
O711       Ni727   1.950       .  S
O711        C717   1.290       .  A
O712        C717   1.279       .  A
C713       C1250   1.498       .  S
O714        C716   1.271       .  A
O715       Ni726   1.944       .  S
C716        O722   1.276       .  A
C716       C1161   1.496       .  S
C717       C1190   1.494       .  S
H718        O719   0.966       .  S
O719       Ni727   1.935       .  S
O719       Ni721   1.897       .  S
O719       Ni726   1.900       .  S
O720       Ni721   1.935       .  S
Ni721       O725   1.903       .  S
Ni721       O723   1.916       .  S
O722       Ni727   1.942       .  S
C724        O725   1.266       .  A
C724       C1230   1.481       .  S
O729       Ni735   1.931       .  S
O729        C750   1.273       .  A
O730       Ni753   1.923       .  S
O730        C739   1.275       .  A
O731       Ni735   1.893       .  S
O731       Ni753   1.898       .  S
O731       Ni747   1.899       .  S
O731        H754   0.966       .  S
C732        O749   1.275       .  A
C732        O741   1.279       .  A
C732       C2030   1.493       .  S
O733       Ni752   1.931       .  S
O733        C739   1.274       .  A
O734       Ni752   1.913       .  S
O734        C736   1.270       .  A
Ni735       O738   1.927       .  S
Ni735       O740   1.912       .  S
C736        O746   1.276       .  A
C736       C1901   1.495       .  S
O737       Ni753   1.935       .  S
O737        C743   1.286       .  A
O738        C743   1.280       .  A
C739       C1201   1.475       .  S
O740        C742   1.268       .  A
O741       Ni752   1.933       .  S
C742        O748   1.274       .  A
C742       C2910   1.489   1_565  S
C743       C1301   1.488   1_565  S
H744        O745   0.967       .  S
O745       Ni753   1.924       .  S
O745       Ni747   1.899       .  S
O745       Ni752   1.895       .  S
O746       Ni747   1.939       .  S
Ni747       O751   1.906       .  S
Ni747       O749   1.921       .  S
O748       Ni753   1.944       .  S
C750        O751   1.268       .  A
C750       C1141   1.481       .  S
O755       Ni761   1.932       .  S
O755        C776   1.271       .  A
O756       Ni779   1.918       .  S
O756        C765   1.273       .  A
O757       Ni761   1.896       .  S
O757       Ni779   1.899       .  S
O757       Ni773   1.897       .  S
O757        H780   0.967       .  S
C758        O775   1.272       .  A
C758        O767   1.281       .  A
C758       C1781   1.497       .  S
O759       Ni778   1.940       .  S
O759        C765   1.278       .  A
O760       Ni778   1.909       .  S
O760        C762   1.270       .  A
Ni761       O764   1.922       .  S
Ni761       O766   1.904       .  S
C762        O772   1.275       .  A
C762       C1990   1.488       .  S
O763       Ni779   1.947       .  S
O763        C769   1.287       .  A
O764        C769   1.279       .  A
C765       C1330   1.483       .  S
O766        C768   1.267       .  A
O767       Ni778   1.946       .  S
C768        O774   1.273       .  A
C768       C1121   1.489       .  S
C769       C1181   1.500       .  S
H770        O771   0.966       .  S
O771       Ni779   1.931       .  S
O771       Ni773   1.903       .  S
O771       Ni778   1.904       .  S
O772       Ni773   1.931       .  S
Ni773       O777   1.906       .  S
Ni773       O775   1.909       .  S
O774       Ni779   1.933       .  S
C776        O777   1.267       .  A
C776       C1150   1.479       .  S
O781       Ni787   1.941       .  S
O781        C802   1.277       .  A
O782       Ni805   1.899       .  S
O782        C791   1.267   1_556  A
O783       Ni787   1.906       .  S
O783       Ni805   1.903       .  S
O783       Ni799   1.925       .  S
O783        H806   0.966       .  S
C784        O801   1.281       .  A
C784        O793   1.278       .  A
C784       C1090   1.487   1_565  S
O785       Ni804   1.934   1_554  S
O785        C791   1.273       .  A
O786       Ni804   1.903       .  S
O786        C788   1.268       .  A
Ni787       O790   1.937       .  S
Ni787       O792   1.913       .  S
C788        O798   1.277       .  A
C788       C1461   1.488   1_565  S
O789       Ni805   1.923       .  S
O789        C795   1.275       .  A
O790        C795   1.279       .  A
C791       C1101   1.477       .  S
O792        C794   1.270       .  A
O793       Ni804   1.931       .  S
C794        O800   1.274       .  A
C794       C2550   1.480       .  S
C795       C2221   1.499       .  S
H796        O797   0.967       .  S
O797       Ni805   1.902       .  S
O797       Ni799   1.901       .  S
O797       Ni804   1.900       .  S
O798       Ni799   1.946       .  S
Ni799       O803   1.916       .  S
Ni799       O801   1.931       .  S
O800       Ni805   1.930       .  S
C802        O803   1.274       .  A
C802       C1070   1.497       .  S
O807       Ni813   1.932       .  S
O807        C828   1.276       .  A
O808       Ni831   1.898       .  S
O808        C817   1.266       .  A
O809       Ni813   1.903       .  S
O809       Ni831   1.906       .  S
O809       Ni825   1.930       .  S
O809        H832   0.966       .  S
C810        O827   1.284       .  A
C810        O819   1.279       .  A
C810       C1041   1.490       .  S
O811       Ni830   1.935       .  S
O811        C817   1.272       .  A
O812       Ni830   1.901       .  S
O812        C814   1.267       .  A
Ni813       O816   1.940       .  S
Ni813       O818   1.910       .  S
C814        O824   1.280       .  A
C814       C1350   1.498       .  S
O815       Ni831   1.904       .  S
O815        C821   1.270       .  A
O816        C821   1.278       .  A
C817       C1110   1.478       .  S
O818        C820   1.270       .  A
O819       Ni830   1.923       .  S
C820        O826   1.277       .  A
C820       C2421   1.497       .  S
C821       C2161   1.493       .  S
H822        O823   0.967       .  S
O823       Ni831   1.890       .  S
O823       Ni825   1.900       .  S
O823       Ni830   1.893       .  S
O824       Ni825   1.961       .  S
Ni825       O829   1.932       .  S
Ni825       O827   1.929       .  S
O826       Ni831   1.941       .  S
C828        O829   1.279       .  A
C828       C1021   1.499       .  S
O833       Ni839   1.931       .  S
O833        C854   1.276       .  A
O834       Ni857   1.905       .  S
O834        C843   1.265       .  A
O835       Ni839   1.906       .  S
O835       Ni857   1.910       .  S
O835       Ni851   1.935       .  S
O835        H858   0.967       .  S
C836        O853   1.288       .  A
C836        O845   1.278       .  A
C836        C981   1.494       .  S
O837       Ni856   1.923       .  S
O837        C843   1.267       .  A
O838       Ni856   1.898       .  S
O838        C840   1.266       .  A
Ni839       O842   1.940       .  S
Ni839       O844   1.910       .  S
C840        O850   1.274       .  A
C840       C2481   1.490       .  S
O841       Ni857   1.900       .  S
O841        C847   1.269       .  A
O842        C847   1.277       .  A
C843       C1001   1.474       .  S
O844        C846   1.270       .  A
O845       Ni856   1.914       .  S
C846        O852   1.274       .  A
C846       C1290   1.486       .  S
C847       C1130   1.491       .  S
H848        O849   0.965       .  S
O849       Ni857   1.893       .  S
O849       Ni851   1.899       .  S
O849       Ni856   1.895       .  S
O850       Ni851   1.941       .  S
Ni851       O855   1.930       .  S
Ni851       O853   1.942       .  S
O852       Ni857   1.930       .  S
C854        O855   1.277       .  A
C854       C1030   1.498       .  S
O859       Ni865   1.933       .  S
O859        C880   1.275       .  A
O860       Ni883   1.899       .  S
O860        C869   1.265       .  A
O861       Ni865   1.909       .  S
O861       Ni883   1.908       .  S
O861       Ni877   1.935       .  S
O861        H884   0.966       .  S
C862        O879   1.285       .  A
C862        O871   1.277       .  A
C862       C1081   1.485       .  S
O863       Ni882   1.927       .  S
O863        C869   1.271       .  A
O864       Ni882   1.902       .  S
O864        C866   1.268       .  A
Ni865       O868   1.938       .  S
Ni865       O870   1.908       .  S
C866        O876   1.276       .  A
C866       C1430   1.489       .  S
O867       Ni883   1.917       .  S
O867        C873   1.273       .  A
O868        C873   1.278       .  A
C869       C1010   1.476       .  S
O870        C872   1.270       .  A
O871       Ni882   1.922       .  S
C872        O878   1.273       .  A
C872       C1410   1.481       .  S
C873       C1170   1.497       .  S
H874        O875   0.966       .  S
O875       Ni883   1.901       .  S
O875       Ni877   1.895       .  S
O875       Ni882   1.899       .  S
O876       Ni877   1.939       .  S
Ni877       O881   1.918       .  S
Ni877       O879   1.940       .  S
O878       Ni883   1.926       .  S
C880        O881   1.274       .  A
C880        C961   1.493   1_556  S
O885       Ni891   1.929       .  S
O885        C906   1.274       .  A
O886       Ni909   1.908       .  S
O886        C895   1.267       .  A
O887       Ni891   1.903       .  S
O887       Ni909   1.904       .  S
O887       Ni903   1.927       .  S
O887        H910   0.966       .  S
C888        O905   1.283       .  A
C888        O897   1.279       .  A
C888        C990   1.486       .  S
O889       Ni908   1.934       .  S
O889        C895   1.272       .  A
O890       Ni908   1.908       .  S
O890        C892   1.269       .  A
Ni891       O894   1.928       .  S
Ni891       O896   1.907       .  S
C892        O902   1.276       .  A
C892       C2390   1.496       .  S
O893       Ni909   1.919       .  S
O893        C899   1.275       .  A
O894        C899   1.276       .  A
C895        C950   1.479       .  S
O896        C898   1.269       .  A
O897       Ni908   1.925       .  S
C898        O904   1.274       .  A
C898       C1450   1.489       .  S
C899       C1561   1.473       .  S
H900        O901   0.966       .  S
O901       Ni909   1.902       .  S
O901       Ni903   1.904       .  S
O901       Ni908   1.898       .  S
O902       Ni903   1.943       .  S
Ni903       O907   1.927       .  S
Ni903       O905   1.934       .  S
O904       Ni909   1.936       .  S
C906        O907   1.276       .  A
C906       C1061   1.494       .  S
O911       Ni917   1.932       .  S
O911        C932   1.275       .  A
O912       Ni935   1.906       .  S
O912        C921   1.265       .  A
O913       Ni917   1.909       .  S
O913       Ni935   1.910       .  S
O913       Ni929   1.929       .  S
O913        H936   0.966       .  S
C914        O931   1.282       .  A
C914        O923   1.277       .  A
C914       C1050   1.477       .  S
O915       Ni934   1.931       .  S
O915        C921   1.271       .  A
O916       Ni934   1.912       .  S
O916        C918   1.271       .  A
Ni917       O920   1.936       .  S
Ni917       O922   1.902       .  S
C918        O928   1.275       .  A
C918       C1270   1.495       .  S
O919       Ni935   1.899       .  S
O919        C925   1.270       .  A
O920        C925   1.277       .  A
C921        C941   1.482       .  S
O922        C924   1.269       .  A
O923       Ni934   1.917       .  S
C924        O930   1.273       .  A
C924       C1510   1.484       .  S
C925       C1670   1.479       .  S
H926        O927   0.967       .  S
O927       Ni935   1.894       .  S
O927       Ni929   1.904       .  S
O927       Ni934   1.902       .  S
O928       Ni929   1.938       .  S
Ni929       O933   1.929       .  S
Ni929       O931   1.927       .  S
O930       Ni935   1.929       .  S
C932        O933   1.275       .  A
C932        C970   1.497       .  S
C937        C938   1.404       .  A
C937        C942   1.401       .  A
C937        H947   1.083       .  S
C938        C943   1.482       .  S
C938        C939   1.407       .  A
C939        C940   1.396       .  A
C939        F944   1.358       .  S
C940        C941   1.404       .  A
C940        H945   1.083       .  S
C941        C942   1.410       .  A
C942        F946   1.357       .  S
C943        C948   1.406       .  A
C943        C952   1.404       .  A
C948        C949   1.399       .  A
C948        F953   1.357       .  S
C949        C950   1.405       .  A
C949        H954   1.083       .  S
C950        C951   1.408       .  A
C951        C952   1.399       .  A
C951        F955   1.358       .  S
C952        H956   1.083       .  S
C957        C958   1.409       .  A
C957        C962   1.404       .  A
C957        H967   1.083       .  S
C958        C963   1.496       .  S
C958        C959   1.407       .  A
C959        C960   1.401       .  A
C959        F964   1.357       .  S
C960        C961   1.410       .  A
C960        H965   1.083       .  S
C961        C962   1.409       .  A
C962        F966   1.357   1_554  S
C963        C968   1.405       .  A
C963        C972   1.410       .  A
C968        C969   1.398       .  A
C968        F973   1.358       .  S
C969        C970   1.410       .  A
C969        H974   1.083       .  S
C970        C971   1.410       .  A
C971        C972   1.409       .  A
C971        F975   1.357       .  S
C972        H976   1.083       .  S
C977        C978   1.410       .  A
C977        C982   1.405       .  A
C977        H987   1.083       .  S
C978        C983   1.490       .  S
C978        C979   1.402       .  A
C979        C980   1.395       .  A
C979        F984   1.358       .  S
C980        C981   1.413       .  A
C980        H985   1.083       .  S
C981        C982   1.407       .  A
C982        F986   1.357       .  S
C983        C988   1.404   1_565  A
C983        C992   1.410       .  A
C988        C989   1.396       .  A
C988        F993   1.358       .  S
C989        C990   1.407       .  A
C989        H994   1.083       .  S
C990        C991   1.407   1_545  A
C991        C992   1.406       .  A
C991        F995   1.357       .  S
C992        H996   1.083       .  S
C997        C998   1.401       .  A
C997       C1002   1.395       .  A
C997       H1007   1.084       .  S
C998       C1003   1.473   1_565  S
C998        C999   1.404       .  A
C999       C1000   1.396       .  A
C999       F1004   1.357   1_565  S
C1000      C1001   1.404       .  A
C1000      H1005   1.083       .  S
C1001      C1002   1.409       .  A
C1002      F1006   1.358       .  S
C1003      C1008   1.404       .  A
C1003      C1012   1.402       .  A
C1008      C1009   1.393       .  A
C1008      F1013   1.358       .  S
C1009      C1010   1.405       .  A
C1009      H1014   1.083       .  S
C1010      C1011   1.410       .  A
C1011      C1012   1.398       .  A
C1011      F1015   1.357       .  S
C1012      H1016   1.083   1_545  S
C1017      C1018   1.409       .  A
C1017      C1022   1.407       .  A
C1017      H1027   1.083       .  S
C1018      C1023   1.493       .  S
C1018      C1019   1.403       .  A
C1019      C1020   1.401       .  A
C1019      F1024   1.358       .  S
C1020      C1021   1.412       .  A
C1020      H1025   1.083       .  S
C1021      C1022   1.410       .  A
C1022      F1026   1.357       .  S
C1023      C1028   1.402       .  A
C1023      C1032   1.409       .  A
C1028      C1029   1.398       .  A
C1028      F1033   1.357       .  S
C1029      C1030   1.411       .  A
C1029      H1034   1.083       .  S
C1030      C1031   1.412       .  A
C1031      C1032   1.410       .  A
C1031      F1035   1.357       .  S
C1032      H1036   1.083       .  S
C1037      C1038   1.409       .  A
C1037      C1042   1.403       .  A
C1037      H1047   1.083       .  S
C1038      C1043   1.487   1_565  S
C1038      C1039   1.403       .  A
C1039      C1040   1.394       .  A
C1039      F1044   1.358       .  S
C1040      C1041   1.412       .  A
C1040      H1045   1.083       .  S
C1041      C1042   1.407       .  A
C1042      F1046   1.357       .  S
C1043      C1048   1.406       .  A
C1043      C1052   1.410       .  A
C1048      C1049   1.393       .  A
C1048      F1053   1.358       .  S
C1049      C1050   1.406       .  A
C1049      H1054   1.084       .  S
C1050      C1051   1.404       .  A
C1051      C1052   1.403       .  A
C1051      F1055   1.357       .  S
C1052      H1056   1.083       .  S
C1057      C1058   1.407   1_565  A
C1057      C1062   1.406   1_565  A
C1057      H1067   1.083       .  S
C1058      C1063   1.488   1_545  S
C1058      C1059   1.403       .  A
C1059      C1060   1.398       .  A
C1059      F1064   1.358       .  S
C1060      C1061   1.411       .  A
C1060      H1065   1.083       .  S
C1061      C1062   1.410       .  A
C1062      F1066   1.357   1_545  S
C1063      C1068   1.404       .  A
C1063      C1072   1.406   1_565  A
C1068      C1069   1.401       .  A
C1068      F1073   1.357       .  S
C1069      C1070   1.411       .  A
C1069      H1074   1.083       .  S
C1070      C1071   1.412   1_565  A
C1071      C1072   1.404       .  A
C1071      F1075   1.357       .  S
C1072      H1076   1.083       .  S
C1077      C1078   1.400       .  A
C1077      C1082   1.399       .  A
C1077      H1087   1.083       .  S
C1078      C1083   1.488       .  S
C1078      C1079   1.411       .  A
C1079      C1080   1.405       .  A
C1079      F1084   1.357       .  S
C1080      C1081   1.403       .  A
C1080      H1085   1.083       .  S
C1081      C1082   1.412       .  A
C1082      F1086   1.358       .  S
C1083      C1088   1.402       .  A
C1083      C1092   1.409       .  A
C1088      C1089   1.397       .  A
C1088      F1093   1.357       .  S
C1089      C1090   1.409       .  A
C1089      H1094   1.083       .  S
C1090      C1091   1.408       .  A
C1091      C1092   1.407       .  A
C1091      F1095   1.357   1_545  S
C1092      H1096   1.083       .  S
C1097      C1098   1.402       .  A
C1097      C1102   1.394       .  A
C1097      H1107   1.084       .  S
C1098      C1103   1.476       .  S
C1098      C1099   1.404       .  A
C1099      C1100   1.399       .  A
C1099      F1104   1.357       .  S
C1100      C1101   1.406       .  A
C1100      H1105   1.083   1_554  S
C1101      C1102   1.408       .  A
C1102      F1106   1.358       .  S
C1103      C1108   1.405       .  A
C1103      C1112   1.402       .  A
C1108      C1109   1.397       .  A
C1108      F1113   1.358       .  S
C1109      C1110   1.406       .  A
C1109      H1114   1.083       .  S
C1110      C1111   1.408       .  A
C1111      C1112   1.397       .  A
C1111      F1115   1.357       .  S
C1112      H1116   1.083       .  S
C1117      C1118   1.403       .  A
C1117      C1122   1.399       .  A
C1117      H1127   1.083       .  S
C1118      C1123   1.487       .  S
C1118      C1119   1.408       .  A
C1119      C1120   1.398       .  A
C1119      F1124   1.357       .  S
C1120      C1121   1.407       .  A
C1120      H1125   1.083       .  S
C1121      C1122   1.413       .  A
C1122      F1126   1.358       .  S
C1123      C1128   1.405       .  A
C1123      C1132   1.407       .  A
C1128      C1129   1.393       .  A
C1128      F1133   1.358       .  S
C1129      C1130   1.409       .  A
C1129      H1134   1.083       .  S
C1130      C1131   1.410       .  A
C1131      C1132   1.404       .  A
C1131      F1135   1.357       .  S
C1132      H1136   1.083       .  S
C1137      C1138   1.403       .  A
C1137      C1142   1.394       .  A
C1137      H1147   1.083       .  S
C1138      C1143   1.482       .  S
C1138      C1139   1.407       .  A
C1139      C1140   1.402       .  A
C1139      F1144   1.357       .  S
C1140      C1141   1.407       .  A
C1140      H1145   1.083       .  S
C1141      C1142   1.408       .  A
C1142      F1146   1.358       .  S
C1143      C1148   1.408       .  A
C1143      C1152   1.403       .  A
C1148      C1149   1.400       .  A
C1148      F1153   1.357       .  S
C1149      C1150   1.404       .  A
C1149      H1154   1.083       .  S
C1150      C1151   1.408       .  A
C1151      C1152   1.396       .  A
C1151      F1155   1.358       .  S
C1152      H1156   1.083       .  S
C1157      C1158   1.403       .  A
C1157      C1162   1.402       .  A
C1157      H1167   1.083       .  S
C1158      C1163   1.491       .  S
C1158      C1159   1.407       .  A
C1159      C1160   1.402       .  A
C1159      F1164   1.357       .  S
C1160      C1161   1.409       .  A
C1160      H1165   1.083       .  S
C1161      C1162   1.414       .  A
C1162      F1166   1.357       .  S
C1163      C1168   1.406       .  A
C1163      C1172   1.406       .  A
C1168      C1169   1.400       .  A
C1168      F1173   1.358       .  S
C1169      C1170   1.410       .  A
C1169      H1174   1.083       .  S
C1170      C1171   1.412       .  A
C1171      C1172   1.405       .  A
C1171      F1175   1.357       .  S
C1172      H1176   1.083       .  S
C1177      C1178   1.413       .  A
C1177      C1182   1.411       .  A
C1177      H1187   1.083       .  S
C1178      C1183   1.499   1_565  S
C1178      C1179   1.404       .  A
C1179      C1180   1.397       .  A
C1179      F1184   1.357       .  S
C1180      C1181   1.412       .  A
C1180      H1185   1.083       .  S
C1181      C1182   1.409       .  A
C1182      F1186   1.357       .  S
C1183      C1188   1.414       .  A
C1183      C1192   1.403       .  A
C1188      C1189   1.409       .  A
C1188      F1193   1.357       .  S
C1189      C1190   1.405       .  A
C1189      H1194   1.083       .  S
C1190      C1191   1.414       .  A
C1191      C1192   1.400       .  A
C1191      F1195   1.358       .  S
C1192      H1196   1.083       .  S
C1197      C1198   1.406       .  A
C1197      C1202   1.399       .  A
C1197      H1207   1.083       .  S
C1198      C1203   1.494   1_565  S
C1198      C1199   1.413   1_565  A
C1199      C1200   1.402   1_545  A
C1199      F1204   1.357       .  S
C1200      C1201   1.401       .  A
C1200      H1205   1.083   1_565  S
C1201      C1202   1.406       .  A
C1202      F1206   1.358       .  S
C1203      C1208   1.413   1_545  A
C1203      C1212   1.404       .  A
C1208      C1209   1.405   1_565  A
C1208      F1213   1.357       .  S
C1209      C1210   1.406       .  A
C1209      H1214   1.083   1_545  S
C1210      C1211   1.410       .  A
C1211      C1212   1.396       .  A
C1211      F1215   1.358       .  S
C1212      H1216   1.083       .  S
C1217      C1218   1.405       .  A
C1217      C1222   1.402       .  A
C1217      H1227   1.083       .  S
C1218      C1223   1.482       .  S
C1218      C1219   1.405       .  A
C1219      C1220   1.395       .  A
C1219      F1224   1.358       .  S
C1220      C1221   1.406       .  A
C1220      H1225   1.083       .  S
C1221      C1222   1.409       .  A
C1222      F1226   1.357   1_556  S
C1223      C1228   1.406       .  A
C1223      C1232   1.404       .  A
C1228      C1229   1.397       .  A
C1228      F1233   1.358       .  S
C1229      C1230   1.404       .  A
C1229      H1234   1.083       .  S
C1230      C1231   1.409       .  A
C1231      C1232   1.401       .  A
C1231      F1235   1.358       .  S
C1232      H1236   1.083       .  S
C1237      C1238   1.402       .  A
C1237      C1242   1.401       .  A
C1237      H1247   1.083       .  S
C1238      C1243   1.494       .  S
C1238      C1239   1.410       .  A
C1239      C1240   1.407       .  A
C1239      F1244   1.357       .  S
C1240      C1241   1.408       .  A
C1240      H1245   1.083       .  S
C1241      C1242   1.416       .  A
C1242      F1246   1.358       .  S
C1243      C1248   1.405       .  A
C1243      C1252   1.408       .  A
C1248      C1249   1.401       .  A
C1248      F1253   1.358       .  S
C1249      C1250   1.411       .  A
C1249      H1254   1.083       .  S
C1250      C1251   1.410       .  A
C1251      C1252   1.407       .  A
C1251      F1255   1.357       .  S
C1252      H1256   1.083       .  S
C1257      C1258   1.407       .  A
C1257      C1262   1.405       .  A
C1257      H1267   1.083       .  S
C1258      C1263   1.495       .  S
C1258      C1259   1.407       .  A
C1259      C1260   1.400       .  A
C1259      F1264   1.358       .  S
C1260      C1261   1.410       .  A
C1260      H1265   1.083       .  S
C1261      C1262   1.411       .  A
C1262      F1266   1.357       .  S
C1263      C1268   1.407       .  A
C1263      C1272   1.407       .  A
C1268      C1269   1.400       .  A
C1268      F1273   1.357       .  S
C1269      C1270   1.409       .  A
C1269      H1274   1.083       .  S
C1270      C1271   1.412       .  A
C1271      C1272   1.403       .  A
C1271      F1275   1.357       .  S
C1272      H1276   1.083       .  S
C1277      C1278   1.403       .  A
C1277      C1282   1.399       .  A
C1277      H1287   1.083       .  S
C1278      C1283   1.490   1_545  S
C1278      C1279   1.409       .  A
C1279      C1280   1.400       .  A
C1279      F1284   1.357   1_545  S
C1280      C1281   1.405       .  A
C1280      H1285   1.083       .  S
C1281      C1282   1.413       .  A
C1282      F1286   1.358       .  S
C1283      C1288   1.410       .  A
C1283      C1292   1.404       .  A
C1288      C1289   1.403       .  A
C1288      F1293   1.357   1_565  S
C1289      C1290   1.407       .  A
C1289      H1294   1.083       .  S
C1290      C1291   1.410       .  A
C1291      C1292   1.396       .  A
C1291      F1295   1.358       .  S
C1292      H1296   1.083       .  S
C1297      C1298   1.402       .  A
C1297      C1302   1.398       .  A
C1297      H1307   1.083       .  S
C1298      C1303   1.493       .  S
C1298      C1299   1.413       .  A
C1299      C1300   1.404       .  A
C1299      F1304   1.357       .  S
C1300      C1301   1.404       .  A
C1300      H1305   1.083   1_545  S
C1301      C1302   1.413       .  A
C1302      F1306   1.358       .  S
C1303      C1308   1.407       .  A
C1303      C1312   1.411       .  A
C1308      C1309   1.396       .  A
C1308      F1313   1.358   1_545  S
C1309      C1310   1.405       .  A
C1309      H1314   1.084       .  S
C1310      C1311   1.403       .  A
C1311      C1312   1.406       .  A
C1311      F1315   1.357       .  S
C1312      H1316   1.083       .  S
C1317      C1318   1.411       .  A
C1317      C1322   1.403       .  A
C1317      H1327   1.083       .  S
C1318      C1323   1.498       .  S
C1318      C1319   1.409       .  A
C1319      C1320   1.402       .  A
C1319      F1324   1.357       .  S
C1320      C1321   1.407       .  A
C1320      H1325   1.083       .  S
C1321      C1322   1.404       .  A
C1322      F1326   1.357   1_556  S
C1323      C1328   1.408       .  A
C1323      C1332   1.412       .  A
C1328      C1329   1.397       .  A
C1328      F1333   1.357       .  S
C1329      C1330   1.403       .  A
C1329      H1334   1.084       .  S
C1330      C1331   1.407       .  A
C1331      C1332   1.407       .  A
C1331      F1335   1.358       .  S
C1332      H1336   1.083       .  S
C1337      C1338   1.404       .  A
C1337      C1342   1.399       .  A
C1337      H1347   1.083       .  S
C1338      C1343   1.500       .  S
C1338      C1339   1.412       .  A
C1339      C1340   1.407       .  A
C1339      F1344   1.357       .  S
C1340      C1341   1.408       .  A
C1340      H1345   1.083       .  S
C1341      C1342   1.415       .  A
C1342      F1346   1.358       .  S
C1343      C1348   1.413       .  A
C1343      C1352   1.404       .  A
C1348      C1349   1.406       .  A
C1348      F1353   1.357       .  S
C1349      C1350   1.406       .  A
C1349      H1354   1.083       .  S
C1350      C1351   1.415       .  A
C1351      C1352   1.401       .  A
C1351      F1355   1.358       .  S
C1352      H1356   1.083       .  S
C1357      C1358   1.405       .  A
C1357      C1362   1.399       .  A
C1357      H1367   1.083   1_565  S
C1358      C1363   1.481   1_565  S
C1358      C1359   1.406       .  A
C1359      C1360   1.396       .  A
C1359      F1364   1.357       .  S
C1360      C1361   1.404       .  A
C1360      H1365   1.083       .  S
C1361      C1362   1.408       .  A
C1362      F1366   1.358       .  S
C1363      C1368   1.405       .  A
C1363      C1372   1.405       .  A
C1368      C1369   1.395       .  A
C1368      F1373   1.358       .  S
C1369      C1370   1.405       .  A
C1369      H1374   1.083       .  S
C1370      C1371   1.409       .  A
C1371      C1372   1.401       .  A
C1371      F1375   1.357       .  S
C1372      H1376   1.083   1_545  S
C1377      C1378   1.409       .  A
C1377      C1382   1.401       .  A
C1377      H1387   1.083       .  S
C1378      C1383   1.492       .  S
C1378      C1379   1.406       .  A
C1379      C1380   1.398       .  A
C1379      F1384   1.357       .  S
C1380      C1381   1.409       .  A
C1380      H1385   1.083       .  S
C1381      C1382   1.406       .  A
C1382      F1386   1.357   1_565  S
C1383      C1388   1.405       .  A
C1383      C1392   1.411       .  A
C1388      C1389   1.396       .  A
C1388      F1393   1.358       .  S
C1389      C1390   1.408       .  A
C1389      H1394   1.083       .  S
C1390      C1391   1.406       .  A
C1391      C1392   1.405       .  A
C1391      F1395   1.357       .  S
C1392      H1396   1.083       .  S
C1397      C1398   1.408       .  A
C1397      C1402   1.402       .  A
C1397      H1407   1.083   1_565  S
C1398      C1403   1.487   1_564  S
C1398      C1399   1.405       .  A
C1399      C1400   1.395       .  A
C1399      F1404   1.358   1_554  S
C1400      C1401   1.408       .  A
C1400      H1405   1.083       .  S
C1401      C1402   1.408       .  A
C1402      F1406   1.357       .  S
C1403      C1408   1.406   1_556  A
C1403      C1412   1.407       .  A
C1408      C1409   1.397   1_554  A
C1408      F1413   1.357       .  S
C1409      C1410   1.406       .  A
C1409      H1414   1.083   1_556  S
C1410      C1411   1.408       .  A
C1411      C1412   1.399       .  A
C1411      F1415   1.357       .  S
C1412      H1416   1.083   1_545  S
C1417      C1418   1.401       .  A
C1417      C1422   1.394       .  A
C1417      H1427   1.083       .  S
C1418      C1423   1.486       .  S
C1418      C1419   1.408       .  A
C1419      C1420   1.404       .  A
C1419      F1424   1.357       .  S
C1420      C1421   1.408       .  A
C1420      H1425   1.083       .  S
C1421      C1422   1.414       .  A
C1422      F1426   1.358       .  S
C1423      C1428   1.407       .  A
C1423      C1432   1.403       .  A
C1428      C1429   1.398       .  A
C1428      F1433   1.357       .  S
C1429      C1430   1.406       .  A
C1429      H1434   1.083       .  S
C1430      C1431   1.413       .  A
C1431      C1432   1.400       .  A
C1431      F1435   1.358       .  S
C1432      H1436   1.083       .  S
C1437      C1438   1.402       .  A
C1437      C1442   1.399       .  A
C1437      H1447   1.083       .  S
C1438      C1443   1.485       .  S
C1438      C1439   1.409       .  A
C1439      C1440   1.402       .  A
C1439      F1444   1.357       .  S
C1440      C1441   1.404       .  A
C1440      H1445   1.083       .  S
C1441      C1442   1.409       .  A
C1442      F1446   1.358       .  S
C1443      C1448   1.403       .  A
C1443      C1452   1.406       .  A
C1448      C1449   1.397       .  A
C1448      F1453   1.358       .  S
C1449      C1450   1.409       .  A
C1449      H1454   1.083       .  S
C1450      C1451   1.410       .  A
C1451      C1452   1.404       .  A
C1451      F1455   1.357       .  S
C1452      H1456   1.083       .  S
C1457      C1458   1.403       .  A
C1457      C1462   1.400       .  A
C1457      H1467   1.083       .  S
C1458      C1463   1.487       .  S
C1458      C1459   1.408   1_554  A
C1459      C1460   1.398       .  A
C1459      F1464   1.358       .  S
C1460      C1461   1.405       .  A
C1460      H1465   1.083       .  S
C1461      C1462   1.413   1_556  A
C1462      F1466   1.358   1_545  S
C1463      C1468   1.408       .  A
C1463      C1472   1.402       .  A
C1468      C1469   1.404       .  A
C1468      F1473   1.357       .  S
C1469      C1470   1.409       .  A
C1469      H1474   1.083       .  S
C1470      C1471   1.412       .  A
C1471      C1472   1.395       .  A
C1471      F1475   1.358       .  S
C1472      H1476   1.083   1_554  S
C1477      C1478   1.405       .  A
C1477      C1482   1.402       .  A
C1477      H1487   1.083       .  S
C1478      C1483   1.484       .  S
C1478      C1479   1.405       .  A
C1479      C1480   1.396       .  A
C1479      F1484   1.358       .  S
C1480      C1481   1.407       .  A
C1480      H1485   1.083       .  S
C1481      C1482   1.409       .  A
C1482      F1486   1.357       .  S
C1483      C1488   1.407       .  A
C1483      C1492   1.405       .  A
C1488      C1489   1.398       .  A
C1488      F1493   1.358       .  S
C1489      C1490   1.404       .  A
C1489      H1494   1.083       .  S
C1490      C1491   1.409       .  A
C1491      C1492   1.401       .  A
C1491      F1495   1.358   1_556  S
C1492      H1496   1.083       .  S
C1497      C1498   1.407       .  A
C1497      C1502   1.401       .  A
C1497      H1507   1.083       .  S
C1498      C1503   1.484       .  S
C1498      C1499   1.404       .  A
C1499      C1500   1.395       .  A
C1499      F1504   1.358       .  S
C1500      C1501   1.407       .  A
C1500      H1505   1.083       .  S
C1501      C1502   1.408       .  A
C1502      F1506   1.358       .  S
C1503      C1508   1.404       .  A
C1503      C1512   1.407       .  A
C1508      C1509   1.395       .  A
C1508      F1513   1.357       .  S
C1509      C1510   1.407       .  A
C1509      H1514   1.083       .  S
C1510      C1511   1.409       .  A
C1511      C1512   1.401       .  A
C1511      F1515   1.357       .  S
C1512      H1516   1.083       .  S
C1517      C1518   1.398       .  A
C1517      C1522   1.392       .  A
C1517      H1527   1.084       .  S
C1518      C1523   1.487       .  S
C1518      C1519   1.410       .  A
C1519      C1520   1.408       .  A
C1519      F1524   1.357       .  S
C1520      C1521   1.408       .  A
C1520      H1525   1.083       .  S
C1521      C1522   1.415       .  A
C1522      F1526   1.358       .  S
C1523      C1528   1.410       .  A
C1523      C1532   1.404       .  A
C1528      C1529   1.399       .  A
C1528      F1533   1.358       .  S
C1529      C1530   1.401       .  A
C1529      H1534   1.083       .  S
C1530      C1531   1.409       .  A
C1531      C1532   1.402       .  A
C1531      F1535   1.358       .  S
C1532      H1536   1.083       .  S
C1537      C1538   1.408       .  A
C1537      C1542   1.407       .  A
C1537      H1547   1.083       .  S
C1538      C1543   1.493       .  S
C1538      C1539   1.406       .  A
C1539      C1540   1.401       .  A
C1539      F1544   1.358       .  S
C1540      C1541   1.409       .  A
C1540      H1545   1.083       .  S
C1541      C1542   1.410       .  A
C1542      F1546   1.357       .  S
C1543      C1548   1.410       .  A
C1543      C1552   1.402       .  A
C1548      C1549   1.407       .  A
C1548      F1553   1.357       .  S
C1549      C1550   1.408       .  A
C1549      H1554   1.083       .  S
C1550      C1551   1.415       .  A
C1551      C1552   1.401       .  A
C1551      F1555   1.357       .  S
C1552      H1556   1.083       .  S
C1557      C1558   1.407       .  A
C1557      C1562   1.400       .  A
C1557      H1567   1.083       .  S
C1558      C1563   1.492       .  S
C1558      C1559   1.412       .  A
C1559      C1560   1.400       .  A
C1559      F1564   1.357       .  S
C1560      C1561   1.401       .  A
C1560      H1565   1.084       .  S
C1561      C1562   1.403       .  A
C1562      F1566   1.357       .  S
C1563      C1568   1.410       .  A
C1563      C1572   1.406       .  A
C1568      C1569   1.399       .  A
C1568      F1573   1.357       .  S
C1569      C1570   1.404       .  A
C1569      H1574   1.083       .  S
C1570      C1571   1.410       .  A
C1571      C1572   1.401       .  A
C1571      F1575   1.358       .  S
C1572      H1576   1.083       .  S
C1577      C1578   1.403       .  A
C1577      C1582   1.403       .  A
C1577      H1587   1.083       .  S
C1578      C1583   1.476       .  S
C1578      C1579   1.403       .  A
C1579      C1580   1.394       .  A
C1579      F1584   1.358       .  S
C1580      C1581   1.407       .  A
C1580      H1585   1.083       .  S
C1581      C1582   1.412       .  A
C1582      F1586   1.357       .  S
C1583      C1588   1.404       .  A
C1583      C1592   1.403       .  A
C1588      C1589   1.397       .  A
C1588      F1593   1.358       .  S
C1589      C1590   1.404       .  A
C1589      H1594   1.083       .  S
C1590      C1591   1.410       .  A
C1591      C1592   1.399       .  A
C1591      F1595   1.358       .  S
C1592      H1596   1.083       .  S
C1597      C1598   1.411       .  A
C1597      C1602   1.406       .  A
C1597      H1607   1.083       .  S
C1598      C1603   1.497       .  S
C1598      C1599   1.408       .  A
C1599      C1600   1.398       .  A
C1599      F1604   1.357       .  S
C1600      C1601   1.404       .  A
C1600      H1605   1.083       .  S
C1601      C1602   1.406       .  A
C1602      F1606   1.357   1_556  S
C1603      C1608   1.408       .  A
C1603      C1612   1.411       .  A
C1608      C1609   1.399       .  A
C1608      F1613   1.357       .  S
C1609      C1610   1.406       .  A
C1609      H1614   1.084       .  S
C1610      C1611   1.404       .  A
C1611      C1612   1.404       .  A
C1611      F1615   1.357       .  S
C1612      H1616   1.083       .  S
C1617      C1618   1.402       .  A
C1617      C1622   1.397       .  A
C1617      H1627   1.083       .  S
C1618      C1623   1.493       .  S
C1618      C1619   1.413       .  A
C1619      C1620   1.404       .  A
C1619      F1624   1.357       .  S
C1620      C1621   1.404       .  A
C1620      H1625   1.083       .  S
C1621      C1622   1.412       .  A
C1622      F1626   1.358       .  S
C1623      C1628   1.414       .  A
C1623      C1632   1.403       .  A
C1628      C1629   1.403       .  A
C1628      F1633   1.357       .  S
C1629      C1630   1.403       .  A
C1629      H1634   1.083       .  S
C1630      C1631   1.411       .  A
C1631      C1632   1.398       .  A
C1631      F1635   1.358       .  S
C1632      H1636   1.083       .  S
C1637      C1638   1.409       .  A
C1637      C1642   1.408       .  A
C1637      H1647   1.083       .  S
C1638      C1643   1.494       .  S
C1638      C1639   1.404       .  A
C1639      C1640   1.399       .  A
C1639      F1644   1.358       .  S
C1640      C1641   1.411       .  A
C1640      H1645   1.083       .  S
C1641      C1642   1.411       .  A
C1642      F1646   1.357       .  S
C1643      C1648   1.410       .  A
C1643      C1652   1.402       .  A
C1648      C1649   1.406       .  A
C1648      F1653   1.357       .  S
C1649      C1650   1.408       .  A
C1649      H1654   1.083       .  S
C1650      C1651   1.416       .  A
C1651      C1652   1.400       .  A
C1651      F1655   1.358       .  S
C1652      H1656   1.083       .  S
C1657      C1658   1.408       .  A
C1657      C1662   1.396       .  A
C1657      H1667   1.083       .  S
C1658      C1663   1.488       .  S
C1658      C1659   1.409       .  A
C1659      C1660   1.401       .  A
C1659      F1664   1.357       .  S
C1660      C1661   1.403       .  A
C1660      H1665   1.083       .  S
C1661      C1662   1.401       .  A
C1662      F1666   1.358       .  S
C1663      C1668   1.406       .  A
C1663      C1672   1.409       .  A
C1668      C1669   1.393       .  A
C1668      F1673   1.358       .  S
C1669      C1670   1.405       .  A
C1669      H1674   1.084       .  S
C1670      C1671   1.407       .  A
C1671      C1672   1.403       .  A
C1671      F1675   1.357       .  S
C1672      H1676   1.083       .  S
C1677      C1678   1.405       .  A
C1677      C1682   1.399       .  A
C1677      H1687   1.083       .  S
C1678      C1683   1.485       .  S
C1678      C1679   1.407       .  A
C1679      C1680   1.398       .  A
C1679      F1684   1.358       .  S
C1680      C1681   1.406       .  A
C1680      H1685   1.083       .  S
C1681      C1682   1.407       .  A
C1682      F1686   1.357       .  S
C1683      C1688   1.407       .  A
C1683      C1692   1.405       .  A
C1688      C1689   1.396       .  A
C1688      F1693   1.357       .  S
C1689      C1690   1.404       .  A
C1689      H1694   1.083       .  S
C1690      C1691   1.410       .  A
C1691      C1692   1.401       .  A
C1691      F1695   1.358       .  S
C1692      H1696   1.083       .  S
C1697      C1698   1.403       .  A
C1697      C1702   1.396       .  A
C1697      H1707   1.083       .  S
C1698      C1703   1.493       .  S
C1698      C1699   1.412       .  A
C1699      C1700   1.403       .  A
C1699      F1704   1.357       .  S
C1700      C1701   1.405       .  A
C1700      H1705   1.083       .  S
C1701      C1702   1.413       .  A
C1702      F1706   1.358       .  S
C1703      C1708   1.408       .  A
C1703      C1712   1.411       .  A
C1708      C1709   1.396       .  A
C1708      F1713   1.357       .  S
C1709      C1710   1.404       .  A
C1709      H1714   1.084       .  S
C1710      C1711   1.403       .  A
C1711      C1712   1.404       .  A
C1711      F1715   1.357       .  S
C1712      H1716   1.083       .  S
C1717      C1718   1.407       .  A
C1717      C1722   1.406       .  A
C1717      H1727   1.083       .  S
C1718      C1723   1.489       .  S
C1718      C1719   1.404       .  A
C1719      C1720   1.397       .  A
C1719      F1724   1.358       .  S
C1720      C1721   1.411       .  A
C1720      H1725   1.083       .  S
C1721      C1722   1.410       .  A
C1722      F1726   1.357       .  S
C1723      C1728   1.409       .  A
C1723      C1732   1.401       .  A
C1728      C1729   1.404       .  A
C1728      F1733   1.357       .  S
C1729      C1730   1.408       .  A
C1729      H1734   1.083       .  S
C1730      C1731   1.415       .  A
C1731      C1732   1.398       .  A
C1731      F1735   1.358       .  S
C1732      H1736   1.083       .  S
C1737      C1738   1.407       .  A
C1737      C1742   1.400       .  A
C1737      H1747   1.083       .  S
C1738      C1743   1.492   1_556  S
C1738      C1739   1.407   1_556  A
C1739      C1740   1.400   1_554  A
C1739      F1744   1.358       .  S
C1740      C1741   1.410       .  A
C1740      H1745   1.083       .  S
C1741      C1742   1.410       .  A
C1742      F1746   1.357       .  S
C1743      C1748   1.409       .  A
C1743      C1752   1.408       .  A
C1748      C1749   1.398       .  A
C1748      F1753   1.357       .  S
C1749      C1750   1.403       .  A
C1749      H1754   1.083       .  S
C1750      C1751   1.406       .  A
C1751      C1752   1.402       .  A
C1751      F1755   1.358       .  S
C1752      H1756   1.083       .  S
C1757      C1758   1.407       .  A
C1757      C1762   1.398       .  A
C1757      H1767   1.083       .  S
C1758      C1763   1.498       .  S
C1758      C1759   1.413       .  A
C1759      C1760   1.404       .  A
C1759      F1764   1.357       .  S
C1760      C1761   1.404       .  A
C1760      H1765   1.083       .  S
C1761      C1762   1.407       .  A
C1762      F1766   1.358       .  S
C1763      C1768   1.412       .  A
C1763      C1772   1.409       .  A
C1768      C1769   1.398       .  A
C1768      F1773   1.357       .  S
C1769      C1770   1.403       .  A
C1769      H1774   1.084       .  S
C1770      C1771   1.407       .  A
C1771      C1772   1.404       .  A
C1771      F1775   1.357       .  S
C1772      H1776   1.082       .  S
C1777      C1778   1.401       .  A
C1777      C1782   1.397       .  A
C1777      H1787   1.083       .  S
C1778      C1783   1.490       .  S
C1778      C1779   1.409       .  A
C1779      C1780   1.406       .  A
C1779      F1784   1.357       .  S
C1780      C1781   1.409       .  A
C1780      H1785   1.083       .  S
C1781      C1782   1.416       .  A
C1782      F1786   1.358       .  S
C1783      C1788   1.409       .  A
C1783      C1792   1.402       .  A
C1788      C1789   1.402       .  A
C1788      F1793   1.357       .  S
C1789      C1790   1.406       .  A
C1789      H1794   1.083       .  S
C1790      C1791   1.416       .  A
C1791      C1792   1.400       .  A
C1791      F1795   1.358       .  S
C1792      H1796   1.083       .  S
C1797      C1798   1.408       .  A
C1797      C1802   1.400       .  A
C1797      H1807   1.083       .  S
C1798      C1803   1.487       .  S
C1798      C1799   1.406       .  A
C1799      C1800   1.398       .  A
C1799      F1804   1.357       .  S
C1800      C1801   1.407       .  A
C1800      H1805   1.083       .  S
C1801      C1802   1.405       .  A
C1802      F1806   1.357       .  S
C1803      C1808   1.403       .  A
C1803      C1812   1.408       .  A
C1808      C1809   1.394       .  A
C1808      F1813   1.358       .  S
C1809      C1810   1.409       .  A
C1809      H1814   1.083       .  S
C1810      C1811   1.410       .  A
C1811      C1812   1.405       .  A
C1811      F1815   1.357       .  S
C1812      H1816   1.083       .  S
C1817      C1818   1.403       .  A
C1817      C1822   1.401       .  A
C1817      H1827   1.083       .  S
C1818      C1823   1.475       .  S
C1818      C1819   1.403       .  A
C1819      C1820   1.394       .  A
C1819      F1824   1.358       .  S
C1820      C1821   1.406       .  A
C1820      H1825   1.083       .  S
C1821      C1822   1.410       .  A
C1822      F1826   1.357       .  S
C1823      C1828   1.404       .  A
C1823      C1832   1.404       .  A
C1828      C1829   1.397       .  A
C1828      F1833   1.357       .  S
C1829      C1830   1.405       .  A
C1829      H1834   1.084       .  S
C1830      C1831   1.405       .  A
C1831      C1832   1.397       .  A
C1831      F1835   1.357       .  S
C1832      H1836   1.083       .  S
C1837      C1838   1.401       .  A
C1837      C1842   1.400       .  A
C1837      H1847   1.083       .  S
C1838      C1843   1.500       .  S
C1838      C1839   1.413       .  A
C1839      C1840   1.410       .  A
C1839      F1844   1.357       .  S
C1840      C1841   1.408       .  A
C1840      H1845   1.083       .  S
C1841      C1842   1.417       .  A
C1842      F1846   1.357       .  S
C1843      C1848   1.413       .  A
C1843      C1852   1.401       .  A
C1848      C1849   1.410       .  A
C1848      F1853   1.357       .  S
C1849      C1850   1.408       .  A
C1849      H1854   1.083       .  S
C1850      C1851   1.419       .  A
C1851      C1852   1.400       .  A
C1851      F1855   1.358       .  S
C1852      H1856   1.083       .  S
C1857      C1858   1.403       .  A
C1857      C1862   1.400       .  A
C1857      H1867   1.083       .  S
C1858      C1863   1.495       .  S
C1858      C1859   1.410       .  A
C1859      C1860   1.404       .  A
C1859      F1864   1.357       .  S
C1860      C1861   1.407       .  A
C1860      H1865   1.083       .  S
C1861      C1862   1.416       .  A
C1862      F1866   1.358       .  S
C1863      C1868   1.411       .  A
C1863      C1872   1.403       .  A
C1868      C1869   1.407       .  A
C1868      F1873   1.358       .  S
C1869      C1870   1.409       .  A
C1869      H1874   1.083       .  S
C1870      C1871   1.414       .  A
C1871      C1872   1.398       .  A
C1871      F1875   1.357       .  S
C1872      H1876   1.083       .  S
C1877      C1878   1.409       .  A
C1877      C1882   1.407       .  A
C1877      H1887   1.083       .  S
C1878      C1883   1.490       .  S
C1878      C1879   1.404       .  A
C1879      C1880   1.392       .  A
C1879      F1884   1.358       .  S
C1880      C1881   1.409       .  A
C1880      H1885   1.083       .  S
C1881      C1882   1.410       .  A
C1882      F1886   1.357       .  S
C1883      C1888   1.409       .  A
C1883      C1892   1.402       .  A
C1888      C1889   1.402       .  A
C1888      F1893   1.358       .  S
C1889      C1890   1.408       .  A
C1889      H1894   1.083       .  S
C1890      C1891   1.414       .  A
C1891      C1892   1.399       .  A
C1891      F1895   1.357       .  S
C1892      H1896   1.083       .  S
C1897      C1898   1.409       .  A
C1897      C1902   1.405       .  A
C1897      H1907   1.083       .  S
C1898      C1903   1.495       .  S
C1898      C1899   1.406       .  A
C1899      C1900   1.399       .  A
C1899      F1904   1.358       .  S
C1900      C1901   1.410       .  A
C1900      H1905   1.083       .  S
C1901      C1902   1.410       .  A
C1902      F1906   1.357       .  S
C1903      C1908   1.408       .  A
C1903      C1912   1.409       .  A
C1908      C1909   1.401       .  A
C1908      F1913   1.357       .  S
C1909      C1910   1.405       .  A
C1909      H1914   1.084       .  S
C1910      C1911   1.405       .  A
C1911      C1912   1.404       .  A
C1911      F1915   1.357       .  S
C1912      H1916   1.083       .  S
C1917      C1918   1.401       .  A
C1917      C1922   1.397       .  A
C1917      H1927   1.083       .  S
C1918      C1923   1.485       .  S
C1918      C1919   1.408   1_556  A
C1919      C1920   1.400       .  A
C1919      F1924   1.357       .  S
C1920      C1921   1.407   1_565  A
C1920      H1925   1.083       .  S
C1921      C1922   1.414   1_544  A
C1922      F1926   1.358   1_565  S
C1923      C1928   1.404       .  A
C1923      C1932   1.406       .  A
C1928      C1929   1.394       .  A
C1928      F1933   1.358   1_556  S
C1929      C1930   1.408       .  A
C1929      H1934   1.083       .  S
C1930      C1931   1.411       .  A
C1931      C1932   1.403       .  A
C1931      F1935   1.357       .  S
C1932      H1936   1.083       .  S
C1937      C1938   1.407       .  A
C1937      C1942   1.402       .  A
C1937      H1947   1.083       .  S
C1938      C1943   1.485       .  S
C1938      C1939   1.403       .  A
C1939      C1940   1.398       .  A
C1939      F1944   1.357       .  S
C1940      C1941   1.409       .  A
C1940      H1945   1.083       .  S
C1941      C1942   1.407       .  A
C1942      F1946   1.357       .  S
C1943      C1948   1.405       .  A
C1943      C1952   1.408       .  A
C1948      C1949   1.396       .  A
C1948      F1953   1.357       .  S
C1949      C1950   1.402       .  A
C1949      H1954   1.084       .  S
C1950      C1951   1.406       .  A
C1951      C1952   1.406       .  A
C1951      F1955   1.357       .  S
C1952      H1956   1.083       .  S
C1957      C1958   1.404       .  A
C1957      C1962   1.401       .  A
C1957      H1967   1.083       .  S
C1958      C1963   1.483       .  S
C1958      C1959   1.406       .  A
C1959      C1960   1.398       .  A
C1959      F1964   1.357       .  S
C1960      C1961   1.404       .  A
C1960      H1965   1.083       .  S
C1961      C1962   1.410       .  A
C1962      F1966   1.358   1_554  S
C1963      C1968   1.406       .  A
C1963      C1972   1.403       .  A
C1968      C1969   1.401       .  A
C1968      F1973   1.357       .  S
C1969      C1970   1.407       .  A
C1969      H1974   1.083       .  S
C1970      C1971   1.410       .  A
C1971      C1972   1.397       .  A
C1971      F1975   1.358       .  S
C1972      H1976   1.083       .  S
C1977      C1978   1.405       .  A
C1977      C1982   1.397       .  A
C1977      H1987   1.083       .  S
C1978      C1983   1.488       .  S
C1978      C1979   1.410       .  A
C1979      C1980   1.399       .  A
C1979      F1984   1.357       .  S
C1980      C1981   1.404       .  A
C1980      H1985   1.083       .  S
C1981      C1982   1.408       .  A
C1982      F1986   1.358       .  S
C1983      C1988   1.409       .  A
C1983      C1992   1.403       .  A
C1988      C1989   1.400       .  A
C1988      F1993   1.357       .  S
C1989      C1990   1.406       .  A
C1989      H1994   1.083       .  S
C1990      C1991   1.413       .  A
C1991      C1992   1.397       .  A
C1991      F1995   1.358       .  S
C1992      H1996   1.083       .  S
C1997      C1998   1.410       .  A
C1997      C2002   1.407       .  A
C1997      H2007   1.083       .  S
C1998      C2003   1.497       .  S
C1998      C1999   1.406       .  A
C1999      C2000   1.398       .  A
C1999      F2004   1.357       .  S
C2000      C2001   1.410       .  A
C2000      H2005   1.083       .  S
C2001      C2002   1.410       .  A
C2002      F2006   1.357       .  S
C2003      C2008   1.406       .  A
C2003      C2012   1.410       .  A
C2008      C2009   1.400       .  A
C2008      F2013   1.357       .  S
C2009      C2010   1.411       .  A
C2009      H2014   1.083       .  S
C2010      C2011   1.409       .  A
C2011      C2012   1.405       .  A
C2011      F2015   1.357       .  S
C2012      H2016   1.083       .  S
C2017      C2018   1.403       .  A
C2017      C2022   1.399       .  A
C2017      H2027   1.083       .  S
C2018      C2023   1.490       .  S
C2018      C2019   1.408       .  A
C2019      C2020   1.403       .  A
C2019      F2024   1.357       .  S
C2020      C2021   1.409       .  A
C2020      H2025   1.083       .  S
C2021      C2022   1.413       .  A
C2022      F2026   1.357       .  S
C2023      C2028   1.408       .  A
C2023      C2032   1.403       .  A
C2028      C2029   1.403       .  A
C2028      F2033   1.357       .  S
C2029      C2030   1.408       .  A
C2029      H2034   1.083       .  S
C2030      C2031   1.413       .  A
C2031      C2032   1.399       .  A
C2031      F2035   1.358       .  S
C2032      H2036   1.083       .  S
C2037      C2038   1.410       .  A
C2037      C2042   1.407       .  A
C2037      H2047   1.083       .  S
C2038      C2043   1.491       .  S
C2038      C2039   1.406       .  A
C2039      C2040   1.396       .  A
C2039      F2044   1.358       .  S
C2040      C2041   1.405       .  A
C2040      H2045   1.084       .  S
C2041      C2042   1.406       .  A
C2042      F2046   1.357       .  S
C2043      C2048   1.404       .  A
C2043      C2052   1.409       .  A
C2048      C2049   1.400       .  A
C2048      F2053   1.358       .  S
C2049      C2050   1.411       .  A
C2049      H2054   1.083       .  S
C2050      C2051   1.407       .  A
C2051      C2052   1.403       .  A
C2051      F2055   1.357       .  S
C2052      H2056   1.083       .  S
C2057      C2058   1.408       .  A
C2057      C2062   1.402       .  A
C2057      H2067   1.083       .  S
C2058      C2063   1.494       .  S
C2058      C2059   1.407       .  A
C2059      C2060   1.399       .  A
C2059      F2064   1.357       .  S
C2060      C2061   1.409       .  A
C2060      H2065   1.083       .  S
C2061      C2062   1.409       .  A
C2062      F2066   1.357   1_554  S
C2063      C2068   1.406       .  A
C2063      C2072   1.409       .  A
C2068      C2069   1.395       .  A
C2068      F2073   1.358       .  S
C2069      C2070   1.408       .  A
C2069      H2074   1.083       .  S
C2070      C2071   1.410       .  A
C2071      C2072   1.406       .  A
C2071      F2075   1.357       .  S
C2072      H2076   1.083       .  S
C2077      C2078   1.407       .  A
C2077      C2082   1.405       .  A
C2077      H2087   1.083       .  S
C2078      C2083   1.488       .  S
C2078      C2079   1.405       .  A
C2079      C2080   1.395       .  A
C2079      F2084   1.358       .  S
C2080      C2081   1.408       .  A
C2080      H2085   1.083       .  S
C2081      C2082   1.410       .  A
C2082      F2086   1.357       .  S
C2083      C2088   1.406       .  A
C2083      C2092   1.406       .  A
C2088      C2089   1.399       .  A
C2088      F2093   1.357       .  S
C2089      C2090   1.409       .  A
C2089      H2094   1.083       .  S
C2090      C2091   1.410       .  A
C2091      C2092   1.400       .  A
C2091      F2095   1.357       .  S
C2092      H2096   1.083       .  S
C2097      C2098   1.402       .  A
C2097      C2102   1.398       .  A
C2097      H2107   1.084       .  S
C2098      C2103   1.476       .  S
C2098      C2099   1.404       .  A
C2099      C2100   1.397       .  A
C2099      F2104   1.357       .  S
C2100      C2101   1.405       .  A
C2100      H2105   1.083       .  S
C2101      C2102   1.409       .  A
C2102      F2106   1.358       .  S
C2103      C2108   1.404       .  A
C2103      C2112   1.402       .  A
C2108      C2109   1.394       .  A
C2108      F2113   1.358       .  S
C2109      C2110   1.404       .  A
C2109      H2114   1.083       .  S
C2110      C2111   1.411       .  A
C2111      C2112   1.401       .  A
C2111      F2115   1.357       .  S
C2112      H2116   1.083       .  S
C2117      C2118   1.407       .  A
C2117      C2122   1.403       .  A
C2117      H2127   1.083       .  S
C2118      C2123   1.482       .  S
C2118      C2119   1.401       .  A
C2119      C2120   1.396       .  A
C2119      F2124   1.358       .  S
C2120      C2121   1.412       .  A
C2120      H2125   1.083       .  S
C2121      C2122   1.408       .  A
C2122      F2126   1.357       .  S
C2123      C2128   1.404       .  A
C2123      C2132   1.407       .  A
C2128      C2129   1.397       .  A
C2128      F2133   1.358       .  S
C2129      C2130   1.405       .  A
C2129      H2134   1.084       .  S
C2130      C2131   1.405       .  A
C2131      C2132   1.403       .  A
C2131      F2135   1.357       .  S
C2132      H2136   1.083       .  S
C2137      C2138   1.407       .  A
C2137      C2142   1.401       .  A
C2137      H2147   1.083       .  S
C2138      C2143   1.491       .  S
C2138      C2139   1.407       .  A
C2139      C2140   1.401       .  A
C2139      F2144   1.357       .  S
C2140      C2141   1.407       .  A
C2140      H2145   1.083       .  S
C2141      C2142   1.408       .  A
C2142      F2146   1.357       .  S
C2143      C2148   1.408       .  A
C2143      C2152   1.409       .  A
C2148      C2149   1.400       .  A
C2148      F2153   1.357       .  S
C2149      C2150   1.404       .  A
C2149      H2154   1.083       .  S
C2150      C2151   1.404       .  A
C2151      C2152   1.402       .  A
C2151      F2155   1.357       .  S
C2152      H2156   1.083       .  S
C2157      C2158   1.407       .  A
C2157      C2162   1.405       .  A
C2157      H2167   1.083       .  S
C2158      C2163   1.487       .  S
C2158      C2159   1.404       .  A
C2159      C2160   1.395       .  A
C2159      F2164   1.358       .  S
C2160      C2161   1.411       .  A
C2160      H2165   1.083       .  S
C2161      C2162   1.410       .  A
C2162      F2166   1.357       .  S
C2163      C2168   1.407       .  A
C2163      C2172   1.403       .  A
C2168      C2169   1.400       .  A
C2168      F2173   1.358       .  S
C2169      C2170   1.409       .  A
C2169      H2174   1.083       .  S
C2170      C2171   1.413       .  A
C2171      C2172   1.401       .  A
C2171      F2175   1.357       .  S
C2172      H2176   1.083       .  S
C2177      C2178   1.402       .  A
C2177      C2182   1.401   1_655  A
C2177      H2187   1.083       .  S
C2178      C2183   1.476       .  S
C2178      C2179   1.404   1_655  A
C2179      C2180   1.395       .  A
C2179      F2184   1.358       .  S
C2180      C2181   1.404       .  A
C2180      H2185   1.083       .  S
C2181      C2182   1.411       .  A
C2182      F2186   1.358       .  S
C2183      C2188   1.403       .  A
C2183      C2192   1.402       .  A
C2188      C2189   1.397       .  A
C2188      F2193   1.358       .  S
C2189      C2190   1.408       .  A
C2189      H2194   1.083       .  S
C2190      C2191   1.410       .  A
C2191      C2192   1.400       .  A
C2191      F2195   1.357       .  S
C2192      H2196   1.083       .  S
C2197      C2198   1.405       .  A
C2197      C2202   1.404       .  A
C2197      H2207   1.083       .  S
C2198      C2203   1.494       .  S
C2198      C2199   1.410   1_554  A
C2199      C2200   1.401       .  A
C2199      F2204   1.358       .  S
C2200      C2201   1.406       .  A
C2200      H2205   1.083       .  S
C2201      C2202   1.411   1_556  A
C2202      F2206   1.357       .  S
C2203      C2208   1.411       .  A
C2203      C2212   1.402       .  A
C2208      C2209   1.409       .  A
C2208      F2213   1.357       .  S
C2209      C2210   1.408       .  A
C2209      H2214   1.083       .  S
C2210      C2211   1.413       .  A
C2211      C2212   1.396       .  A
C2211      F2215   1.358       .  S
C2212      H2216   1.083       .  S
C2217      C2218   1.408       .  A
C2217      C2222   1.404       .  A
C2217      H2227   1.083       .  S
C2218      C2223   1.500       .  S
C2218      C2219   1.410       .  A
C2219      C2220   1.402       .  A
C2219      F2224   1.357   1_556  S
C2220      C2221   1.410       .  A
C2220      H2225   1.083       .  S
C2221      C2222   1.411       .  A
C2222      F2226   1.357       .  S
C2223      C2228   1.411   1_556  A
C2223      C2232   1.407       .  A
C2228      C2229   1.403       .  A
C2228      F2233   1.357       .  S
C2229      C2230   1.407   1_455  A
C2229      H2234   1.083       .  S
C2230      C2231   1.413   1_654  A
C2231      C2232   1.401       .  A
C2231      F2235   1.358   1_455  S
C2232      H2236   1.083       .  S
C2237      C2238   1.408       .  A
C2237      C2242   1.403       .  A
C2237      H2247   1.083       .  S
C2238      C2243   1.488       .  S
C2238      C2239   1.405       .  A
C2239      C2240   1.396       .  A
C2239      F2244   1.358       .  S
C2240      C2241   1.409       .  A
C2240      H2245   1.083       .  S
C2241      C2242   1.408       .  A
C2242      F2246   1.357       .  S
C2243      C2248   1.405       .  A
C2243      C2252   1.407       .  A
C2248      C2249   1.398       .  A
C2248      F2253   1.357       .  S
C2249      C2250   1.409       .  A
C2249      H2254   1.083       .  S
C2250      C2251   1.409       .  A
C2251      C2252   1.401       .  A
C2251      F2255   1.357       .  S
C2252      H2256   1.083       .  S
C2257      C2258   1.399       .  A
C2257      C2262   1.397   1_455  A
C2257      H2267   1.083       .  S
C2258      C2263   1.491       .  S
C2258      C2259   1.412       .  A
C2259      C2260   1.407   1_455  A
C2259      F2264   1.357       .  S
C2260      C2261   1.407       .  A
C2260      H2265   1.083       .  S
C2261      C2262   1.417       .  A
C2262      F2266   1.358       .  S
C2263      C2268   1.405       .  A
C2263      C2272   1.410       .  A
C2268      C2269   1.398       .  A
C2268      F2273   1.358   1_455  S
C2269      C2270   1.407       .  A
C2269      H2274   1.084       .  S
C2270      C2271   1.405       .  A
C2271      C2272   1.407       .  A
C2271      F2275   1.357       .  S
C2272      H2276   1.083       .  S
C2277      C2278   1.405       .  A
C2277      C2282   1.399       .  A
C2277      H2287   1.083       .  S
C2278      C2283   1.495       .  S
C2278      C2279   1.413       .  A
C2279      C2280   1.402       .  A
C2279      F2284   1.357       .  S
C2280      C2281   1.403       .  A
C2280      H2285   1.083       .  S
C2281      C2282   1.410       .  A
C2282      F2286   1.358       .  S
C2283      C2288   1.414       .  A
C2283      C2292   1.406       .  A
C2288      C2289   1.403       .  A
C2288      F2293   1.357       .  S
C2289      C2290   1.402       .  A
C2289      H2294   1.083       .  S
C2290      C2291   1.404       .  A
C2291      C2292   1.398       .  A
C2291      F2295   1.358       .  S
C2292      H2296   1.083       .  S
C2297      C2298   1.406       .  A
C2297      C2302   1.403       .  A
C2297      H2307   1.083       .  S
C2298      C2303   1.492       .  S
C2298      C2299   1.406       .  A
C2299      C2300   1.401       .  A
C2299      F2304   1.358       .  S
C2300      C2301   1.412       .  A
C2300      H2305   1.083       .  S
C2301      C2302   1.410       .  A
C2302      F2306   1.356       .  S
C2303      C2308   1.406       .  A
C2303      C2312   1.406       .  A
C2308      C2309   1.399       .  A
C2308      F2313   1.357       .  S
C2309      C2310   1.408       .  A
C2309      H2314   1.083       .  S
C2310      C2311   1.413       .  A
C2311      C2312   1.404       .  A
C2311      F2315   1.358       .  S
C2312      H2316   1.083       .  S
C2317      C2318   1.406       .  A
C2317      C2322   1.402       .  A
C2317      H2327   1.083       .  S
C2318      C2323   1.485       .  S
C2318      C2319   1.405       .  A
C2319      C2320   1.397       .  A
C2319      F2324   1.358       .  S
C2320      C2321   1.407       .  A
C2320      H2325   1.083       .  S
C2321      C2322   1.409       .  A
C2322      F2326   1.357       .  S
C2323      C2328   1.406       .  A
C2323      C2332   1.405       .  A
C2328      C2329   1.400       .  A
C2328      F2333   1.358       .  S
C2329      C2330   1.408       .  A
C2329      H2334   1.083       .  S
C2330      C2331   1.408       .  A
C2331      C2332   1.400       .  A
C2331      F2335   1.357       .  S
C2332      H2336   1.083       .  S
C2337      C2338   1.403       .  A
C2337      C2342   1.397       .  A
C2337      H2347   1.083       .  S
C2338      C2343   1.478       .  S
C2338      C2339   1.406       .  A
C2339      C2340   1.395       .  A
C2339      F2344   1.357       .  S
C2340      C2341   1.403       .  A
C2340      H2345   1.083       .  S
C2341      C2342   1.408       .  A
C2342      F2346   1.358       .  S
C2343      C2348   1.405       .  A
C2343      C2352   1.404       .  A
C2348      C2349   1.394       .  A
C2348      F2353   1.358       .  S
C2349      C2350   1.404       .  A
C2349      H2354   1.083       .  S
C2350      C2351   1.409       .  A
C2351      C2352   1.399       .  A
C2351      F2355   1.357   1_556  S
C2352      H2356   1.083       .  S
C2357      C2358   1.410   1_655  A
C2357      C2362   1.407   1_655  A
C2357      H2367   1.083       .  S
C2358      C2363   1.502   1_455  S
C2358      C2359   1.408       .  A
C2359      C2360   1.403       .  A
C2359      F2364   1.357       .  S
C2360      C2361   1.410       .  A
C2360      H2365   1.083       .  S
C2361      C2362   1.412       .  A
C2362      F2366   1.357   1_455  S
C2363      C2368   1.412   1_655  A
C2363      C2372   1.405       .  A
C2368      C2369   1.408   1_455  A
C2368      F2373   1.357       .  S
C2369      C2370   1.409       .  A
C2369      H2374   1.083   1_655  S
C2370      C2371   1.415       .  A
C2371      C2372   1.402       .  A
C2371      F2375   1.357       .  S
C2372      H2376   1.083       .  S
C2377      C2378   1.403       .  A
C2377      C2382   1.398       .  A
C2377      H2387   1.083       .  S
C2378      C2383   1.497       .  S
C2378      C2379   1.411       .  A
C2379      C2380   1.407       .  A
C2379      F2384   1.357       .  S
C2380      C2381   1.408       .  A
C2380      H2385   1.083       .  S
C2381      C2382   1.415       .  A
C2382      F2386   1.358       .  S
C2383      C2388   1.411       .  A
C2383      C2392   1.405       .  A
C2388      C2389   1.404       .  A
C2388      F2393   1.357       .  S
C2389      C2390   1.407   1_565  A
C2389      H2394   1.083       .  S
C2390      C2391   1.413   1_545  A
C2391      C2392   1.401       .  A
C2391      F2395   1.357   1_565  S
C2392      H2396   1.083       .  S
C2397      C2398   1.406       .  A
C2397      C2402   1.401       .  A
C2397      H2407   1.083       .  S
C2398      C2403   1.485       .  S
C2398      C2399   1.403       .  A
C2399      C2400   1.399       .  A
C2399      F2404   1.358       .  S
C2400      C2401   1.411       .  A
C2400      H2405   1.083   1_655  S
C2401      C2402   1.409       .  A
C2402      F2406   1.357       .  S
C2403      C2408   1.408       .  A
C2403      C2412   1.399       .  A
C2408      C2409   1.408       .  A
C2408      F2413   1.357       .  S
C2409      C2410   1.410       .  A
C2409      H2414   1.083       .  S
C2410      C2411   1.413       .  A
C2411      C2412   1.393       .  A
C2411      F2415   1.358       .  S
C2412      H2416   1.084       .  S
C2417      C2418   1.402       .  A
C2417      C2422   1.396       .  A
C2417      H2427   1.083       .  S
C2418      C2423   1.497       .  S
C2418      C2419   1.412       .  A
C2419      C2420   1.408       .  A
C2419      F2424   1.357       .  S
C2420      C2421   1.409       .  A
C2420      H2425   1.083       .  S
C2421      C2422   1.414       .  A
C2422      F2426   1.357       .  S
C2423      C2428   1.413       .  A
C2423      C2432   1.406       .  A
C2428      C2429   1.401       .  A
C2428      F2433   1.357       .  S
C2429      C2430   1.402       .  A
C2429      H2434   1.083       .  S
C2430      C2431   1.409       .  A
C2431      C2432   1.402       .  A
C2431      F2435   1.358       .  S
C2432      H2436   1.083       .  S
C2437      C2438   1.412       .  A
C2437      C2442   1.408       .  A
C2437      H2447   1.083       .  S
C2438      C2443   1.498       .  S
C2438      C2439   1.406       .  A
C2439      C2440   1.399       .  A
C2439      F2444   1.357       .  S
C2440      C2441   1.409       .  A
C2440      H2445   1.083       .  S
C2441      C2442   1.406       .  A
C2442      F2446   1.357   1_655  S
C2443      C2448   1.406       .  A
C2443      C2452   1.411       .  A
C2448      C2449   1.400       .  A
C2448      F2453   1.357       .  S
C2449      C2450   1.411       .  A
C2449      H2454   1.083       .  S
C2450      C2451   1.408       .  A
C2451      C2452   1.406       .  A
C2451      F2455   1.357       .  S
C2452      H2456   1.083       .  S
C2457      C2458   1.409       .  A
C2457      C2462   1.403       .  A
C2457      H2467   1.083       .  S
C2458      C2463   1.494       .  S
C2458      C2459   1.406       .  A
C2459      C2460   1.401       .  A
C2459      F2464   1.357       .  S
C2460      C2461   1.411       .  A
C2460      H2465   1.083       .  S
C2461      C2462   1.408       .  A
C2462      F2466   1.357       .  S
C2463      C2468   1.412       .  A
C2463      C2472   1.401       .  A
C2468      C2469   1.408       .  A
C2468      F2473   1.357       .  S
C2469      C2470   1.408       .  A
C2469      H2474   1.083   1_556  S
C2470      C2471   1.415       .  A
C2471      C2472   1.395       .  A
C2471      F2475   1.358       .  S
C2472      H2476   1.083       .  S
C2477      C2478   1.407       .  A
C2477      C2482   1.403       .  A
C2477      H2487   1.083       .  S
C2478      C2483   1.488       .  S
C2478      C2479   1.404       .  A
C2479      C2480   1.396       .  A
C2479      F2484   1.358       .  S
C2480      C2481   1.409       .  A
C2480      H2485   1.083       .  S
C2481      C2482   1.410       .  A
C2482      F2486   1.357       .  S
C2483      C2488   1.405       .  A
C2483      C2492   1.406       .  A
C2488      C2489   1.397       .  A
C2488      F2493   1.358       .  S
C2489      C2490   1.410       .  A
C2489      H2494   1.083       .  S
C2490      C2491   1.411       .  A
C2491      C2492   1.403       .  A
C2491      F2495   1.357       .  S
C2492      H2496   1.083       .  S
C2497      C2498   1.411       .  A
C2497      C2502   1.407       .  A
C2497      H2507   1.083       .  S
C2498      C2503   1.494   1_455  S
C2498      C2499   1.404       .  A
C2499      C2500   1.398       .  A
C2499      F2504   1.358       .  S
C2500      C2501   1.411       .  A
C2500      H2505   1.083       .  S
C2501      C2502   1.407       .  A
C2502      F2506   1.357       .  S
C2503      C2508   1.405       .  A
C2503      C2512   1.411       .  A
C2508      C2509   1.399       .  A
C2508      F2513   1.357       .  S
C2509      C2510   1.408       .  A
C2509      H2514   1.084       .  S
C2510      C2511   1.406       .  A
C2511      C2512   1.406       .  A
C2511      F2515   1.357       .  S
C2512      H2516   1.083       .  S
C2517      C2518   1.401       .  A
C2517      C2522   1.401       .  A
C2517      H2527   1.083       .  S
C2518      C2523   1.470       .  S
C2518      C2519   1.401       .  A
C2519      C2520   1.394       .  A
C2519      F2524   1.358       .  S
C2520      C2521   1.407       .  A
C2520      H2525   1.083       .  S
C2521      C2522   1.410       .  A
C2522      F2526   1.357       .  S
C2523      C2528   1.399       .  A
C2523      C2532   1.403       .  A
C2528      C2529   1.390       .  A
C2528      F2533   1.358       .  S
C2529      C2530   1.408       .  A
C2529      H2534   1.083       .  S
C2530      C2531   1.411       .  A
C2531      C2532   1.404       .  A
C2531      F2535   1.357       .  S
C2532      H2536   1.083       .  S
C2537      C2538   1.408       .  A
C2537      C2542   1.405       .  A
C2537      H2547   1.083       .  S
C2538      C2543   1.489       .  S
C2538      C2539   1.404       .  A
C2539      C2540   1.397       .  A
C2539      F2544   1.358       .  S
C2540      C2541   1.409       .  A
C2540      H2545   1.083       .  S
C2541      C2542   1.411       .  A
C2542      F2546   1.357       .  S
C2543      C2548   1.410       .  A
C2543      C2552   1.404       .  A
C2548      C2549   1.401       .  A
C2548      F2553   1.357       .  S
C2549      C2550   1.403       .  A
C2549      H2554   1.083       .  S
C2550      C2551   1.408       .  A
C2551      C2552   1.400       .  A
C2551      F2555   1.358       .  S
C2552      H2556   1.083       .  S
C2557      C2558   1.409       .  A
C2557      C2562   1.402       .  A
C2557      H2567   1.082       .  S
C2558      C2563   1.501       .  S
C2558      C2559   1.414       .  A
C2559      C2560   1.400       .  A
C2559      F2564   1.357       .  S
C2560      C2561   1.404       .  A
C2560      H2565   1.084       .  S
C2561      C2562   1.407       .  A
C2562      F2566   1.357       .  S
C2563      C2568   1.415       .  A
C2563      C2572   1.409       .  A
C2568      C2569   1.402       .  A
C2568      F2573   1.357       .  S
C2569      C2570   1.402       .  A
C2569      H2574   1.084       .  S
C2570      C2571   1.404       .  A
C2571      C2572   1.400       .  A
C2571      F2575   1.358       .  S
C2572      H2576   1.082       .  S
C2577      C2578   1.408       .  A
C2577      C2582   1.404       .  A
C2577      H2587   1.083       .  S
C2578      C2583   1.492       .  S
C2578      C2579   1.406       .  A
C2579      C2580   1.398       .  A
C2579      F2584   1.358       .  S
C2580      C2581   1.409       .  A
C2580      H2585   1.083       .  S
C2581      C2582   1.408       .  A
C2582      F2586   1.357       .  S
C2583      C2588   1.407       .  A
C2583      C2592   1.407       .  A
C2588      C2589   1.399       .  A
C2588      F2593   1.357       .  S
C2589      C2590   1.408       .  A
C2589      H2594   1.083       .  S
C2590      C2591   1.411       .  A
C2591      C2592   1.404       .  A
C2591      F2595   1.357       .  S
C2592      H2596   1.083       .  S
C2597      C2598   1.402       .  A
C2597      C2602   1.397       .  A
C2597      H2607   1.083       .  S
C2598      C2603   1.486       .  S
C2598      C2599   1.410       .  A
C2599      C2600   1.400       .  A
C2599      F2604   1.357       .  S
C2600      C2601   1.403       .  A
C2600      H2605   1.083       .  S
C2601      C2602   1.410       .  A
C2602      F2606   1.358       .  S
C2603      C2608   1.404       .  A
C2603      C2612   1.408       .  A
C2608      C2609   1.394       .  A
C2608      F2613   1.358       .  S
C2609      C2610   1.408       .  A
C2609      H2614   1.083       .  S
C2610      C2611   1.408       .  A
C2611      C2612   1.403       .  A
C2611      F2615   1.357       .  S
C2612      H2616   1.083       .  S
C2617      C2618   1.404       .  A
C2617      C2622   1.401       .  A
C2617      H2627   1.083       .  S
C2618      C2623   1.493       .  S
C2618      C2619   1.409   1_556  A
C2619      C2620   1.402       .  A
C2619      F2624   1.357       .  S
C2620      C2621   1.407       .  A
C2620      H2625   1.083       .  S
C2621      C2622   1.414   1_554  A
C2622      F2626   1.357       .  S
C2623      C2628   1.406       .  A
C2623      C2632   1.408       .  A
C2628      C2629   1.395       .  A
C2628      F2633   1.357   1_556  S
C2629      C2630   1.408       .  A
C2629      H2634   1.083       .  S
C2630      C2631   1.412       .  A
C2631      C2632   1.406       .  A
C2631      F2635   1.357       .  S
C2632      H2636   1.083       .  S
C2637      C2638   1.408       .  A
C2637      C2642   1.405       .  A
C2637      H2647   1.083       .  S
C2638      C2643   1.490       .  S
C2638      C2639   1.406       .  A
C2639      C2640   1.392       .  A
C2639      F2644   1.358   1_554  S
C2640      C2641   1.407       .  A
C2640      H2645   1.083       .  S
C2641      C2642   1.410       .  A
C2642      F2646   1.357       .  S
C2643      C2648   1.407       .  A
C2643      C2652   1.406   1_554  A
C2648      C2649   1.402       .  A
C2648      F2653   1.357       .  S
C2649      C2650   1.408   1_554  A
C2649      H2654   1.083   1_655  S
C2650      C2651   1.410       .  A
C2651      C2652   1.399       .  A
C2651      F2655   1.357       .  S
C2652      H2656   1.083       .  S
C2657      C2658   1.404       .  A
C2657      C2662   1.400       .  A
C2657      H2667   1.083       .  S
C2658      C2663   1.479       .  S
C2658      C2659   1.406       .  A
C2659      C2660   1.396       .  A
C2659      F2664   1.357       .  S
C2660      C2661   1.404       .  A
C2660      H2665   1.083       .  S
C2661      C2662   1.409       .  A
C2662      F2666   1.358   1_554  S
C2663      C2668   1.405       .  A
C2663      C2672   1.402       .  A
C2668      C2669   1.401       .  A
C2668      F2673   1.357       .  S
C2669      C2670   1.407       .  A
C2669      H2674   1.083       .  S
C2670      C2671   1.410       .  A
C2671      C2672   1.396       .  A
C2671      F2675   1.358       .  S
C2672      H2676   1.084       .  S
C2677      C2678   1.409       .  A
C2677      C2682   1.405       .  A
C2677      H2687   1.083       .  S
C2678      C2683   1.498       .  S
C2678      C2679   1.408       .  A
C2679      C2680   1.400       .  A
C2679      F2684   1.357       .  S
C2680      C2681   1.408       .  A
C2680      H2685   1.083       .  S
C2681      C2682   1.411       .  A
C2682      F2686   1.357       .  S
C2683      C2688   1.409       .  A
C2683      C2692   1.409       .  A
C2688      C2689   1.401       .  A
C2688      F2693   1.357       .  S
C2689      C2690   1.407       .  A
C2689      H2694   1.083       .  S
C2690      C2691   1.408       .  A
C2691      C2692   1.404       .  A
C2691      F2695   1.357       .  S
C2692      H2696   1.083       .  S
C2697      C2698   1.404       .  A
C2697      C2702   1.402       .  A
C2697      H2707   1.083       .  S
C2698      C2703   1.493       .  S
C2698      C2699   1.409       .  A
C2699      C2700   1.402       .  A
C2699      F2704   1.357       .  S
C2700      C2701   1.407       .  A
C2700      H2705   1.083       .  S
C2701      C2702   1.412       .  A
C2702      F2706   1.358       .  S
C2703      C2708   1.410       .  A
C2703      C2712   1.401       .  A
C2708      C2709   1.408       .  A
C2708      F2713   1.357       .  S
C2709      C2710   1.408       .  A
C2709      H2714   1.083       .  S
C2710      C2711   1.416       .  A
C2711      C2712   1.398       .  A
C2711      F2715   1.357       .  S
C2712      H2716   1.083       .  S
C2717      C2718   1.407       .  A
C2717      C2722   1.402       .  A
C2717      H2727   1.083       .  S
C2718      C2723   1.491       .  S
C2718      C2719   1.406       .  A
C2719      C2720   1.399       .  A
C2719      F2724   1.357       .  S
C2720      C2721   1.410       .  A
C2720      H2725   1.083       .  S
C2721      C2722   1.409       .  A
C2722      F2726   1.357       .  S
C2723      C2728   1.409       .  A
C2723      C2732   1.403       .  A
C2728      C2729   1.404       .  A
C2728      F2733   1.357       .  S
C2729      C2730   1.409       .  A
C2729      H2734   1.083       .  S
C2730      C2731   1.413       .  A
C2731      C2732   1.397       .  A
C2731      F2735   1.358       .  S
C2732      H2736   1.083       .  S
C2737      C2738   1.405       .  A
C2737      C2742   1.400       .  A
C2737      H2747   1.083       .  S
C2738      C2743   1.487       .  S
C2738      C2739   1.406       .  A
C2739      C2740   1.400       .  A
C2739      F2744   1.357       .  S
C2740      C2741   1.409       .  A
C2740      H2745   1.083       .  S
C2741      C2742   1.412       .  A
C2742      F2746   1.357       .  S
C2743      C2748   1.405       .  A
C2743      C2752   1.407       .  A
C2748      C2749   1.394       .  A
C2748      F2753   1.358       .  S
C2749      C2750   1.408       .  A
C2749      H2754   1.083       .  S
C2750      C2751   1.411       .  A
C2751      C2752   1.405       .  A
C2751      F2755   1.357       .  S
C2752      H2756   1.083       .  S
C2757      C2758   1.405       .  A
C2757      C2762   1.398       .  A
C2757      H2767   1.083       .  S
C2758      C2763   1.498   1_455  S
C2758      C2759   1.413   1_455  A
C2759      C2760   1.404   1_655  A
C2759      F2764   1.357       .  S
C2760      C2761   1.407       .  A
C2760      H2765   1.083       .  S
C2761      C2762   1.412       .  A
C2762      F2766   1.357       .  S
C2763      C2768   1.408       .  A
C2763      C2772   1.410       .  A
C2768      C2769   1.400       .  A
C2768      F2773   1.357       .  S
C2769      C2770   1.410       .  A
C2769      H2774   1.083       .  S
C2770      C2771   1.407       .  A
C2771      C2772   1.403       .  A
C2771      F2775   1.357       .  S
C2772      H2776   1.083   1_655  S
C2777      C2778   1.405       .  A
C2777      C2782   1.400       .  A
C2777      H2787   1.083       .  S
C2778      C2783   1.490       .  S
C2778      C2779   1.407       .  A
C2779      C2780   1.401       .  A
C2779      F2784   1.357       .  S
C2780      C2781   1.408       .  A
C2780      H2785   1.083       .  S
C2781      C2782   1.412       .  A
C2782      F2786   1.358       .  S
C2783      C2788   1.407       .  A
C2783      C2792   1.405       .  A
C2788      C2789   1.399       .  A
C2788      F2793   1.357       .  S
C2789      C2790   1.408       .  A
C2789      H2794   1.083       .  S
C2790      C2791   1.411       .  A
C2791      C2792   1.402       .  A
C2791      F2795   1.357       .  S
C2792      H2796   1.083       .  S
C2797      C2798   1.408       .  A
C2797      C2802   1.406       .  A
C2797      H2807   1.083       .  S
C2798      C2803   1.494       .  S
C2798      C2799   1.405       .  A
C2799      C2800   1.400       .  A
C2799      F2804   1.357       .  S
C2800      C2801   1.411       .  A
C2800      H2805   1.083       .  S
C2801      C2802   1.411       .  A
C2802      F2806   1.357       .  S
C2803      C2808   1.404       .  A
C2803      C2812   1.409       .  A
C2808      C2809   1.398       .  A
C2808      F2813   1.358       .  S
C2809      C2810   1.410       .  A
C2809      H2814   1.083       .  S
C2810      C2811   1.412       .  A
C2811      C2812   1.408       .  A
C2811      F2815   1.357       .  S
C2812      H2816   1.083       .  S
C2817      C2818   1.414       .  A
C2817      C2822   1.407       .  A
C2817      H2827   1.082       .  S
C2818      C2823   1.504       .  S
C2818      C2819   1.408       .  A
C2819      C2820   1.399       .  A
C2819      F2824   1.357       .  S
C2820      C2821   1.411       .  A
C2820      H2825   1.083       .  S
C2821      C2822   1.407       .  A
C2822      F2826   1.357       .  S
C2823      C2828   1.410       .  A
C2823      C2832   1.414       .  A
C2828      C2829   1.398   1_655  A
C2828      F2833   1.357       .  S
C2829      C2830   1.405   1_455  A
C2829      H2834   1.084       .  S
C2830      C2831   1.405       .  A
C2831      C2832   1.409       .  A
C2831      F2835   1.357       .  S
C2832      H2836   1.082       .  S
C2837      C2838   1.401       .  A
C2837      C2842   1.396       .  A
C2837      H2847   1.084       .  S
C2838      C2843   1.479   1_655  S
C2838      C2839   1.405       .  A
C2839      C2840   1.401       .  A
C2839      F2844   1.357   1_655  S
C2840      C2841   1.407       .  A
C2840      H2845   1.083       .  S
C2841      C2842   1.410       .  A
C2842      F2846   1.358       .  S
C2843      C2848   1.405       .  A
C2843      C2852   1.403       .  A
C2848      C2849   1.397       .  A
C2848      F2853   1.358       .  S
C2849      C2850   1.406       .  A
C2849      H2854   1.083       .  S
C2850      C2851   1.410       .  A
C2851      C2852   1.400       .  A
C2851      F2855   1.358       .  S
C2852      H2856   1.083   1_455  S
C2857      C2858   1.406       .  A
C2857      C2862   1.403       .  A
C2857      H2867   1.083   1_655  S
C2858      C2863   1.484   1_656  S
C2858      C2859   1.403   1_556  A
C2859      C2860   1.396   1_554  A
C2859      F2864   1.358       .  S
C2860      C2861   1.411       .  A
C2860      H2865   1.083       .  S
C2861      C2862   1.410       .  A
C2862      F2866   1.357       .  S
C2863      C2868   1.409       .  A
C2863      C2872   1.403       .  A
C2868      C2869   1.401       .  A
C2868      F2873   1.357   1_455  S
C2869      C2870   1.404       .  A
C2869      H2874   1.083       .  S
C2870      C2871   1.407       .  A
C2871      C2872   1.397       .  A
C2871      F2875   1.358       .  S
C2872      H2876   1.083   1_554  S
C2877      C2878   1.408       .  A
C2877      C2882   1.404       .  A
C2877      H2887   1.083       .  S
C2878      C2883   1.490       .  S
C2878      C2879   1.404   1_655  A
C2879      C2880   1.397       .  A
C2879      F2884   1.358       .  S
C2880      C2881   1.409       .  A
C2880      H2885   1.083       .  S
C2881      C2882   1.408   1_455  A
C2882      F2886   1.357       .  S
C2883      C2888   1.403       .  A
C2883      C2892   1.409   1_655  A
C2888      C2889   1.397       .  A
C2888      F2893   1.358       .  S
C2889      C2890   1.411       .  A
C2889      H2894   1.083       .  S
C2890      C2891   1.408       .  A
C2891      C2892   1.405   1_655  A
C2891      F2895   1.357   1_655  S
C2892      H2896   1.083       .  S
C2897      C2898   1.408       .  A
C2897      C2902   1.403       .  A
C2897      H2907   1.083       .  S
C2898      C2903   1.498       .  S
C2898      C2899   1.412       .  A
C2899      C2900   1.402       .  A
C2899      F2904   1.357       .  S
C2900      C2901   1.402       .  A
C2900      H2905   1.083       .  S
C2901      C2902   1.407       .  A
C2902      F2906   1.358       .  S
C2903      C2908   1.411       .  A
C2903      C2912   1.407       .  A
C2908      C2909   1.403       .  A
C2908      F2913   1.357       .  S
C2909      C2910   1.406       .  A
C2909      H2914   1.083       .  S
C2910      C2911   1.409       .  A
C2911      C2912   1.402       .  A
C2911      F2915   1.357   1_545  S
C2912      H2916   1.083       .  S
C2917      C2918   1.408       .  A
C2917      C2922   1.405       .  A
C2917      H2927   1.083       .  S
C2918      C2923   1.491       .  S
C2918      C2919   1.405       .  A
C2919      C2920   1.396       .  A
C2919      F2924   1.358       .  S
C2920      C2921   1.410       .  A
C2920      H2925   1.083       .  S
C2921      C2922   1.410       .  A
C2922      F2926   1.357       .  S
C2923      C2928   1.405       .  A
C2923      C2932   1.407       .  A
C2928      C2929   1.399       .  A
C2928      F2933   1.357       .  S
C2929      C2930   1.409   1_455  A
C2929      H2934   1.083   1_455  S
C2930      C2931   1.411   1_655  A
C2931      C2932   1.403       .  A
C2931      F2935   1.357       .  S
C2932      H2936   1.083       .  S
C2937      C2938   1.409       .  A
C2937      C2942   1.407       .  A
C2937      H2947   1.083       .  S
C2938      C2943   1.494       .  S
C2938      C2939   1.406       .  A
C2939      C2940   1.398       .  A
C2939      F2944   1.357       .  S
C2940      C2941   1.407       .  A
C2940      H2945   1.083       .  S
C2941      C2942   1.409       .  A
C2942      F2946   1.357       .  S
C2943      C2948   1.407       .  A
C2943      C2952   1.407       .  A
C2948      C2949   1.404       .  A
C2948      F2953   1.358       .  S
C2949      C2950   1.412       .  A
C2949      H2954   1.083       .  S
C2950      C2951   1.409       .  A
C2951      C2952   1.401       .  A
C2951      F2955   1.357       .  S
C2952      H2956   1.083       .  S
C2957      C2958   1.405       .  A
C2957      C2962   1.400       .  A
C2957      H2967   1.083       .  S
C2958      C2963   1.502       .  S
C2958      C2959   1.415       .  A
C2959      C2960   1.407       .  A
C2959      F2964   1.357       .  S
C2960      C2961   1.406       .  A
C2960      H2965   1.083       .  S
C2961      C2962   1.413       .  A
C2962      F2966   1.358       .  S
C2963      C2968   1.408       .  A
C2963      C2972   1.411       .  A
C2968      C2969   1.403       .  A
C2968      F2973   1.357       .  S
C2969      C2970   1.412   1_455  A
C2969      H2974   1.083       .  S
C2970      C2971   1.406       .  A
C2971      C2972   1.405   1_655  A
C2971      F2975   1.357       .  S
C2972      H2976   1.083       .  S
C2977      C2978   1.402       .  A
C2977      C2982   1.396       .  A
C2977      H2987   1.083       .  S
C2978      C2983   1.493       .  S
C2978      C2979   1.411       .  A
C2979      C2980   1.407       .  A
C2979      F2984   1.357       .  S
C2980      C2981   1.408       .  A
C2980      H2985   1.083       .  S
C2981      C2982   1.413       .  A
C2982      F2986   1.358       .  S
C2983      C2988   1.411       .  A
C2983      C2992   1.403       .  A
C2988      C2989   1.403       .  A
C2988      F2993   1.357       .  S
C2989      C2990   1.404       .  A
C2989      H2994   1.083       .  S
C2990      C2991   1.415       .  A
C2991      C2992   1.400       .  A
C2991      F2995   1.358       .  S
C2992      H2996   1.083       .  S
C2997      C2998   1.402       .  A
C2997      C3002   1.398       .  A
C2997      H3007   1.083       .  S
C2998      C3003   1.492       .  S
C2998      C2999   1.410       .  A
C2999      C3000   1.404       .  A
C2999      F3004   1.357       .  S
C3000      C3001   1.407       .  A
C3000      H3005   1.083       .  S
C3001      C3002   1.415       .  A
C3002      F3006   1.358       .  S
C3003      C3008   1.406       .  A
C3003      C3012   1.407       .  A
C3008      C3009   1.398       .  A
C3008      F3013   1.357       .  S
C3009      C3010   1.409       .  A
C3009      H3014   1.083       .  S
C3010      C3011   1.412       .  A
C3011      C3012   1.404       .  A
C3011      F3015   1.358       .  S
C3012      H3016   1.083       .  S
C3017      C3018   1.407       .  A
C3017      C3022   1.408       .  A
C3017      H3027   1.083       .  S
C3018      C3023   1.488       .  S
C3018      C3019   1.402       .  A
C3019      C3020   1.396       .  A
C3019      F3024   1.358       .  S
C3020      C3021   1.411       .  A
C3020      H3025   1.083       .  S
C3021      C3022   1.412       .  A
C3022      F3026   1.357       .  S
C3023      C3028   1.403       .  A
C3023      C3032   1.406       .  A
C3028      C3029   1.400       .  A
C3028      F3033   1.358       .  S
C3029      C3030   1.412       .  A
C3029      H3034   1.083       .  S
C3030      C3031   1.410       .  A
C3031      C3032   1.403       .  A
C3031      F3035   1.357       .  S
C3032      H3036   1.083       .  S
C3037      C3038   1.404       .  A
C3037      C3042   1.395       .  A
C3037      H3047   1.083       .  S
C3038      C3043   1.477       .  S
C3038      C3039   1.405       .  A
C3039      C3040   1.397       .  A
C3039      F3044   1.358       .  S
C3040      C3041   1.407       .  A
C3040      H3045   1.083       .  S
C3041      C3042   1.406       .  A
C3042      F3046   1.357       .  S
C3043      C3048   1.406       .  A
C3043      C3052   1.404       .  A
C3048      C3049   1.393       .  A
C3048      F3053   1.357       .  S
C3049      C3050   1.403       .  A
C3049      H3054   1.083       .  S
C3050      C3051   1.407       .  A
C3051      C3052   1.397       .  A
C3051      F3055   1.358       .  S
C3052      H3056   1.083       .  S
C3057      C3058   1.401       .  A
C3057      C3062   1.396       .  A
C3057      H3067   1.083       .  S
C3058      C3063   1.482   1_655  S
C3058      C3059   1.410       .  A
C3059      C3060   1.401       .  A
C3059      F3064   1.357       .  S
C3060      C3061   1.403       .  A
C3060      H3065   1.083       .  S
C3061      C3062   1.410       .  A
C3062      F3066   1.358       .  S
C3063      C3068   1.403       .  A
C3063      C3072   1.407       .  A
C3068      C3069   1.395       .  A
C3068      F3073   1.358       .  S
C3069      C3070   1.407       .  A
C3069      H3074   1.084       .  S
C3070      C3071   1.405       .  A
C3071      C3072   1.402       .  A
C3071      F3075   1.357       .  S
C3072      H3076   1.083       .  S
C3077      C3078   1.408       .  A
C3077      C3082   1.403       .  A
C3077      H3087   1.083       .  S
C3078      C3083   1.493       .  S
C3078      C3079   1.407       .  A
C3079      C3080   1.397       .  A
C3079      F3084   1.358       .  S
C3080      C3081   1.408       .  A
C3080      H3085   1.083       .  S
C3081      C3082   1.409       .  A
C3082      F3086   1.357       .  S
C3083      C3088   1.408       .  A
C3083      C3092   1.407       .  A
C3088      C3089   1.400       .  A
C3088      F3093   1.357       .  S
C3089      C3090   1.407       .  A
C3089      H3094   1.083       .  S
C3090      C3091   1.407       .  A
C3091      C3092   1.400       .  A
C3091      F3095   1.357       .  S
C3092      H3096   1.083       .  S
