geometry optimzed in LAMMPS
_audit_creation_date              2020-11-30 
_audit_creation_method            'lammps2cif' 
_symmetry_space_group_name_H-M    'P1' 
_symmetry_Int_Tables_number       1 
_symmetry_cell_setting            triclinic 
loop_ 
_symmetry_equiv_pos_as_xyz 
  x,y,z 
_cell_length_a                    30.82671879 
_cell_length_b                    30.880583506502525 
_cell_length_c                    54.68125371675312 
_cell_angle_alpha                 89.9400879026947 
_cell_angle_beta                  90.10337711675571 
_cell_angle_gamma                 119.99521276448796 
loop_ 
_atom_site_label 
_atom_site_type_symbol 
_atom_site_fract_x 
_atom_site_fract_y 
_atom_site_fract_z 
_atom_site_charge 
Zr1        Zr  0.58649985  0.74940643  0.65036510     2.17500
O2          O  0.53147861  0.69166598  0.68164374    -0.52000
O3          O  0.52128892  0.77015104  0.64271264    -0.75200
O4          O  0.59705095  0.78865611  0.69058735    -0.82000
O5          O  0.54297075  0.63936826  0.60520252    -0.83700
O6          O  0.66869965  0.86358474  0.69027001    -0.79300
O7          O  0.52331149  0.66424002  0.64055553    -0.91000
O8          O  0.53984033  0.81397792  0.60732968    -0.76900
O9          O  0.62515351  0.83426174  0.63745417    -0.86400
O10         O  0.58162230  0.74787176  0.60679612    -0.86100
O11         O  0.67093990  0.78535232  0.66526126    -0.72900
O12         O  0.62812000  0.70552025  0.63647572    -0.85000
Zr13       Zr  0.74810347  0.82852266  0.59406937     2.26400
Zr14       Zr  0.70966758  0.87042575  0.65151600     2.06300
Zr15       Zr  0.62465405  0.70614704  0.59261276     2.10000
Zr16       Zr  0.62167587  0.83252199  0.59389776     1.78800
O17         O  0.62710727  0.62854481  0.59355304    -0.93800
O18         O  0.62708869  0.91327029  0.59992393    -0.41600
O19         O  0.66411854  0.79089719  0.57864520    -0.78300
O20         O  0.70630404  0.87190115  0.60780157    -0.97000
O21         O  0.75303120  0.82930896  0.63747569    -0.90300
O22         O  0.70882285  0.74343114  0.60679667    -0.93100
C23         C  0.51127072  0.79235200  0.62565546     1.00700
C24         C  0.51386579  0.63247967  0.62336559     1.13600
C25         C  0.62949979  0.82957496  0.70103507     1.04400
O26         O  0.70042768  0.94427814  0.65200049    -0.95300
O27         O  0.79004443  0.93753153  0.63824201    -0.91000
O28         O  0.81443245  0.91208710  0.60466807    -0.84100
C29         C  0.82138168  0.94448541  0.62117059     1.11000
O30         O  0.68162537  0.69244381  0.68652950    -0.97200
Zr31       Zr  0.71343359  0.74445354  0.65004920     1.88900
O32         O  0.81850281  0.81759106  0.60357345    -0.73900
O33         O  0.77181498  0.90201850  0.68419918    -0.53100
O34         O  0.76810544  0.78096428  0.68541392    -0.97800
O35         O  0.70597514  0.66268913  0.64453849    -0.55000
O36         O  0.79636939  0.76592285  0.63644712    -0.74400
C37         C  0.82738620  0.79315099  0.61982606     0.98000
O38         O  0.78067123  0.88104530  0.55775931    -0.63200
O39         O  0.56868400  0.68091022  0.55745419    -0.58000
O40         O  0.74988768  0.78127280  0.55898003    -0.94700
O41         O  0.67466087  0.70980047  0.55708067    -0.93100
O42         O  0.57039071  0.79872077  0.55729051    -0.93500
O43         O  0.65615465  0.88907894  0.55916325    -0.92300
C44         C  0.71893579  0.73962692  0.54877911     1.16800
H45         H  0.54714294  0.73022345  0.60143229     0.32700
H46         H  0.72349820  0.90595107  0.60189348     0.43600
H47         H  0.72532672  0.72656355  0.60002300     0.37100
H48         H  0.67247906  0.78332176  0.68282372     0.33600
H49         H  0.59978484  0.91184434  0.58975144     0.25400
H50         H  0.77013009  0.93073367  0.69115039     0.31300
H51         H  0.79091477  0.81633401  0.68092383     0.37200
H52         H  0.54618076  0.76339360  0.56121653     0.31700
H53         H  0.58347264  0.71046962  0.54656263     0.30600
H54         H  0.60129226  0.60645334  0.58162106     0.32200
H55         H  0.72481225  0.66553530  0.62941428     0.31200
H56         H  0.67747072  0.87831618  0.55062745     0.35200
H57         H  0.75808207  0.86142630  0.54418818     0.27900
H58         H  0.51164897  0.70647204  0.68793407     0.32200
H59         H  0.70772486  0.68426701  0.69129101     0.35000
H60         H  0.57417924  0.65590013  0.54880968     0.27600
H61         H  0.77283086  0.90808295  0.56044567     0.40500
H62         H  0.66785747  0.93332220  0.66009804     0.30600
H63         H  0.61588041  0.91244117  0.61696095     0.38200
H64         H  0.67043027  0.64027224  0.64009145     0.30000
H65         H  0.75815502  0.87608578  0.69711797     0.30100
H66         H  0.55349471  0.69388239  0.69536779     0.30400
Zr67       Zr  0.79497021  0.54966044  0.35858649     2.17500
O68         O  0.73320456  0.49196350  0.32956543    -0.52000
O69         O  0.82044125  0.48784337  0.36479685    -0.75200
O70         O  0.83157003  0.56124089  0.31760773    -0.82000
O71         O  0.68556861  0.50444222  0.40293142    -0.83700
O72         O  0.90413252  0.63526606  0.31730674    -0.79300
O73         O  0.71091238  0.48341252  0.36818000    -0.91000
O74         O  0.87132133  0.51023079  0.39776072    -0.76900
O75         O  0.88104654  0.59183685  0.36996841    -0.86400
O76         O  0.79663882  0.54442986  0.40214428    -0.86100
O77         O  0.82577016  0.63341681  0.34375935    -0.72900
O78         O  0.74846174  0.58738385  0.37381567    -0.85000
Zr79       Zr  0.87084685  0.71153550  0.41485956     2.26400
Zr80       Zr  0.91203357  0.67587121  0.35627342     2.06300
Zr81       Zr  0.75252727  0.58413232  0.41740763     2.10000
Zr82       Zr  0.88248402  0.58830214  0.41346271     1.78800
O83         O  0.67140395  0.57897699  0.42144146    -0.93800
O84         O  0.96896483  0.60943958  0.40636173    -0.41600
O85         O  0.83847264  0.62764874  0.42993530    -0.78300
O86         O  0.91662913  0.67272197  0.39998721    -0.97000
O87         O  0.86792414  0.71546623  0.37142735    -0.90300
O88         O  0.78466971  0.66787509  0.40348603    -0.93100
C89         C  0.84728552  0.48026374  0.38017807     1.00700
C90         C  0.67866704  0.47489773  0.38499810     1.13600
C91         C  0.87097781  0.59516033  0.30672199     1.04400
O92         O  0.98753141  0.66985151  0.35247475    -0.95300
O93         O  0.97932964  0.75593868  0.37004498    -0.91000
O94         O  0.95517190  0.77847927  0.40479749    -0.84100
C95         C  0.98722716  0.78585372  0.38793225     1.11000
O96         O  0.72185769  0.63223375  0.32706117    -0.97200
Zr97       Zr  0.78174742  0.67179637  0.36035370     1.88900
O98         O  0.85785557  0.78068257  0.40410832    -0.73900
O99         O  0.93909789  0.73813442  0.32375725    -0.53100
O100        O  0.80777465  0.72386108  0.32375049    -0.97800
O101        O  0.69988497  0.66139325  0.37019683    -0.55000
O102        O  0.80338969  0.75544079  0.37233653    -0.74400
C103        C  0.83157207  0.78801192  0.38812485     0.98000
O104        O  0.92184162  0.74613827  0.45159740    -0.63200
O105        O  0.73453897  0.52854588  0.45224137    -0.58000
O106        O  0.82194438  0.70975415  0.45041991    -0.94700
O107        O  0.75290117  0.63266198  0.45244862    -0.93100
O108        O  0.85459320  0.52825399  0.44692656    -0.93500
O109        O  0.93052019  0.61622715  0.45133031    -0.92300
C110        C  0.78073034  0.67719883  0.46063537     1.16800
H111        H  0.78083209  0.51004336  0.40752851     0.32700
H112        H  0.95101548  0.69101960  0.40547500     0.43600
H113        H  0.76683022  0.68293221  0.41071502     0.37100
H114        H  0.82237378  0.63459583  0.32626236     0.33600
H115        H  0.97508003  0.58869621  0.41814892     0.25400
H116        H  0.96976713  0.73997812  0.31700222     0.31300
H117        H  0.84158602  0.75200021  0.32764272     0.37200
H118        H  0.82720811  0.53096875  0.45482109     0.31700
H119        H  0.76006705  0.54912680  0.46460733     0.30600
H120        H  0.65571394  0.55741451  0.43590220     0.32200
H121        H  0.70508442  0.68231810  0.38481116     0.31200
H122        H  0.94138337  0.65222779  0.45243415     0.35200
H123        H  0.90629385  0.71919080  0.46396499     0.27900
H124        H  0.74924836  0.47527803  0.32111827     0.32200
H125        H  0.70898503  0.65512622  0.32322746     0.35000
H126        H  0.70275975  0.52404480  0.45900438     0.27600
H127        H  0.95413804  0.74791855  0.44793219     0.40500
H128        H  0.00845480  0.69595774  0.34042349     0.30600
H129        H  0.96837178  0.59464027  0.39022612     0.38200
H130        H  0.68000380  0.62655469  0.37616152     0.30000
H131        H  0.91377855  0.72253929  0.31061482     0.30100
H132        H  0.72968536  0.51335407  0.31715904     0.30400
Zr133      Zr  0.42086627  0.16926566  0.36166540     2.17500
O134        O  0.48422381  0.17143442  0.33422595    -0.52000
O135        O  0.48105756  0.25717471  0.36879599    -0.75200
O136        O  0.41051193  0.19231204  0.31998346    -0.82000
O137        O  0.46583969  0.10588948  0.40759408    -0.83700
O138        O  0.33768231  0.19331439  0.31930968    -0.79300
O139        O  0.48603007  0.15102766  0.37245222    -0.91000
O140        O  0.45846179  0.28372987  0.40242867    -0.76900
O141        O  0.37717639  0.21186059  0.37194284    -0.86400
O142        O  0.42391528  0.17587520  0.40514256    -0.86100
O143        O  0.33779476  0.11473067  0.34624711    -0.72900
O144        O  0.38271495  0.08506391  0.37724292    -0.85000
Zr145      Zr  0.25679213  0.08255924  0.41691865     2.26400
Zr146      Zr  0.29394813  0.15757886  0.35742781     2.06300
Zr147      Zr  0.38468111  0.09229925  0.42085541     2.10000
Zr148      Zr  0.37848782  0.21675660  0.41545526     1.78800
O149        O  0.38807361  0.01545536  0.42430361    -0.93800
O150        O  0.35979962  0.28274291  0.40562772    -0.41600
O151        O  0.34014498  0.13414906  0.43230188    -0.78300
O152        O  0.29478179  0.16619167  0.40106745    -0.97000
O153        O  0.25404721  0.07465990  0.37353055    -0.90300
O154        O  0.30114220  0.04034091  0.40658157    -0.93100
C155        C  0.48843076  0.29046029  0.38487060     1.00700
C156        C  0.49515312  0.12818612  0.38948458     1.13600
C157        C  0.37751603  0.19904858  0.30888813     1.04400
O158        O  0.29411073  0.23622494  0.35361700    -0.95300
O159        O  0.21109081  0.13960932  0.36916493    -0.91000
O160        O  0.18826299  0.09608789  0.40483996    -0.84100
C161        C  0.18012088  0.11766478  0.38668642     1.11000
O162        O  0.34056439  0.00884656  0.33316626    -0.97200
Zr163      Zr  0.29831075  0.03259348  0.36347737     1.88900
O164        O  0.18885497  0.99993863  0.40711566    -0.73900
O165        O  0.23700049  0.11997956  0.32293460    -0.53100
O166        O  0.25318019  0.01216542  0.32470514    -0.97800
O167        O  0.30414167  0.95917502  0.37456692    -0.55000
O168        O  0.21276588  0.97116709  0.37457651    -0.74400
C169        C  0.18065919  0.96703660  0.39072928     0.98000
O170        O  0.22178616  0.10093842  0.45282581    -0.63200
O171        O  0.43749755  0.12997498  0.45661936    -0.58000
O172        O  0.25814491  0.03809907  0.45368938    -0.94700
O173        O  0.33487428  0.04486829  0.45605942    -0.93100
O174        O  0.43248136  0.24591488  0.45135519    -0.93500
O175        O  0.34527147  0.23540743  0.45176148    -0.92300
C176        C  0.29029690  0.02914605  0.46419323     1.16800
H177        H  0.45819650  0.19482714  0.41072431     0.32700
H178        H  0.27570469  0.18186806  0.40582828     0.43600
H179        H  0.28598385  0.00763755  0.41404747     0.37100
H180        H  0.33743306  0.11015091  0.32877473     0.33600
H181        H  0.38379947  0.31174948  0.41553271     0.25400
H182        H  0.23920516  0.14845165  0.31354608     0.31300
H183        H  0.22138815  0.01142285  0.32839636     0.37200
H184        H  0.45915934  0.23772812  0.44815716     0.31700
H185        H  0.44368586  0.10357746  0.46309162     0.30600
H186        H  0.40862812  0.02015834  0.43906086     0.32200
H187        H  0.27859981  0.94180777  0.38740793     0.31200
H188        H  0.30853148  0.21346563  0.45045289     0.35200
H189        H  0.24942340  0.11513789  0.46492962     0.27900
H190        H  0.49888182  0.20380634  0.32549737     0.32200
H191        H  0.31439841  0.97659953  0.32628208     0.35000
H192        H  0.47027105  0.15561402  0.44999266     0.27600
H193        H  0.21787830  0.12976024  0.44810013     0.40500
H194        H  0.27454468  0.23237534  0.33858191     0.30600
H195        H  0.37141562  0.29240991  0.38857521     0.38200
H196        H  0.33659815  0.97276089  0.38321143     0.30000
H197        H  0.25315881  0.10613358  0.31234913     0.30100
H198        H  0.46560067  0.14544431  0.32174251     0.30400
Zr199      Zr  0.20968855  0.75496617  0.65179323     2.17500
O200        O  0.27497133  0.76833190  0.68099566    -0.52000
O201        O  0.18543424  0.66802047  0.64356624    -0.75200
O202        O  0.17231191  0.72476188  0.69239875    -0.82000
O203        O  0.31922364  0.82221574  0.60839614    -0.83700
O204        O  0.09949326  0.72607480  0.69332125    -0.79300
O205        O  0.29210409  0.76969211  0.64106891    -0.91000
O206        O  0.13874568  0.64496782  0.60885666    -0.76900
O207        O  0.12417146  0.71134712  0.63942443    -0.86400
O208        O  0.20939436  0.75236795  0.60813217    -0.86100
O209        O  0.17687548  0.80540128  0.66778027    -0.72900
O210        O  0.25483917  0.84059398  0.63794228    -0.85000
Zr211      Zr  0.13380364  0.84375914  0.59741521     2.26400
Zr212      Zr  0.09119501  0.76135164  0.65471955     2.06300
Zr213      Zr  0.25291048  0.83694467  0.59419758     2.10000
Zr214      Zr  0.12424791  0.71095736  0.59574961     1.78800
O215        O  0.33524588  0.91096069  0.58972234    -0.93800
O216        O  0.04085440  0.63840742  0.60050606    -0.41600
O217        O  0.16768884  0.79517977  0.58073548    -0.78300
O218        O  0.08845396  0.75835585  0.61091435    -0.97000
O219        O  0.13424527  0.84614930  0.64094429    -0.90300
O220        O  0.21938606  0.88636874  0.60961115    -0.93100
C221        C  0.16110993  0.63667645  0.62639925     1.00700
C222        C  0.32498772  0.79582079  0.62489817     1.13600
C223        C  0.13280776  0.71852848  0.70356974     1.04400
O224        O  0.01678662  0.67865392  0.65384657    -0.95300
O225        O  0.02485884  0.77630269  0.64163160    -0.91000
O226        O  0.05032373  0.82661304  0.60809808    -0.84100
C227        C  0.01786345  0.80054935  0.62450211     1.11000
O228        O  0.27443209  0.90277389  0.68770167    -0.97200
Zr229      Zr  0.21966500  0.88938138  0.65286116     1.88900
O230        O  0.14581082  0.92420987  0.60922721    -0.73900
O231        O  0.06076469  0.79221000  0.68765818    -0.53100
O232        O  0.19089893  0.91222251  0.68951706    -0.97800
O233        O  0.30001222  0.96450551  0.64522308    -0.55000
O234        O  0.19660672  0.95171587  0.64242846    -0.74400
C235        C  0.16926839  0.95636619  0.62609414     0.98000
O236        O  0.08263517  0.83055736  0.56099141    -0.63200
O237        O  0.26381311  0.79496218  0.55898784    -0.58000
O238        O  0.18209954  0.89450157  0.56261009    -0.94700
O239        O  0.25308720  0.88970491  0.56074442    -0.93100
O240        O  0.15731973  0.69092354  0.55968335    -0.93500
O241        O  0.07087030  0.69520113  0.56007874    -0.92300
C242        C  0.22438377  0.90587695  0.55279688     1.16800
H243        H  0.22562216  0.73458148  0.60224168     0.32700
H244        H  0.05419081  0.74249061  0.60529783     0.43600
H245        H  0.23715595  0.92000859  0.60314347     0.37100
H246        H  0.17966882  0.80806380  0.68516742     0.33600
H247        H  0.04021370  0.61303469  0.58921413     0.25400
H248        H  0.03318486  0.76186349  0.69531387     0.31300
H249        H  0.17298536  0.88099666  0.69912669     0.37200
H250        H  0.15539885  0.65857174  0.56323738     0.31700
H251        H  0.24448924  0.79921649  0.54565562     0.30600
H252        H  0.34867644  0.90557009  0.57430295     0.32200
H253        H  0.29264722  0.98498203  0.63385161     0.31200
H254        H  0.05523640  0.71612511  0.56257075     0.35200
H255        H  0.09875864  0.82145751  0.54788963     0.27900
H256        H  0.26345902  0.73565596  0.68904781     0.32200
H257        H  0.28895933  0.93848018  0.69208788     0.35000
H258        H  0.29928401  0.81637656  0.55417622     0.27600
H259        H  0.05078251  0.79919119  0.56406886     0.40500
H260        H  0.99802282  0.67722897  0.66878220     0.30600
H261        H  0.04098803  0.62530837  0.61702205     0.38200
H262        H  0.31903981  0.95292227  0.63527147     0.30000
H263        H  0.08785383  0.80570516  0.70003121     0.30100
H264        H  0.27374674  0.79049038  0.69369942     0.30400
Zr265      Zr  0.20548919  0.37783205  0.64890031     2.17500
O266        O  0.20144700  0.43477974  0.67848897    -0.52000
O267        O  0.29267703  0.43953254  0.64102970    -0.75200
O268        O  0.23407803  0.37044858  0.68962075    -0.82000
O269        O  0.14004917  0.42008084  0.60257160    -0.83700
O270        O  0.23095949  0.29567315  0.69190601    -0.79300
O271        O  0.18389229  0.44106202  0.63815100    -0.91000
O272        O  0.32021455  0.41372020  0.60884223    -0.76900
O273        O  0.24739101  0.33305394  0.63896830    -0.86400
O274        O  0.21292571  0.38033699  0.60549551    -0.86100
O275        O  0.15245333  0.29538563  0.66502328    -0.72900
O276        O  0.12127669  0.33914113  0.63346075    -0.85000
Zr277      Zr  0.11715166  0.21251488  0.59515793     2.26400
Zr278      Zr  0.19418136  0.25027064  0.65402092     2.06300
Zr279      Zr  0.12924264  0.34030523  0.58989037     2.10000
Zr280      Zr  0.25279876  0.33379571  0.59551754     1.78800
O281        O  0.05376245  0.34545991  0.58356225    -0.93800
O282        O  0.32404256  0.32212152  0.60358451    -0.41600
O283        O  0.16978144  0.29454162  0.57878429    -0.78300
O284        O  0.20138411  0.25072787  0.61043154    -0.97000
O285        O  0.11062777  0.21061939  0.63851542    -0.90300
O286        O  0.07634755  0.25812017  0.60538544    -0.93100
C287        C  0.32657025  0.44513755  0.62566275     1.00700
C288        C  0.16101677  0.44945578  0.62076300     1.13600
C289        C  0.23999452  0.33759704  0.70127625     1.04400
O290        O  0.27384320  0.25180856  0.65605534    -0.95300
O291        O  0.17686125  0.16750953  0.64170780    -0.91000
O292        O  0.13027299  0.14394588  0.60689529    -0.84100
C293        C  0.15365774  0.13626158  0.62432662     1.11000
O294        O  0.05136890  0.29713085  0.68175743    -0.97200
Zr295      Zr  0.06970934  0.25587993  0.64863080     1.88900
O296        O  0.03472024  0.14568060  0.60613155    -0.73900
O297        O  0.15656299  0.19237543  0.68809681    -0.53100
O298        O  0.05432472  0.20788745  0.68621485    -0.97800
O299        O  0.99474540  0.26112016  0.64018006    -0.55000
O300        O  0.00578356  0.17180896  0.63765889    -0.74400
C301        C  0.00148104  0.13884391  0.62211678     0.98000
O302        O  0.13529920  0.17737435  0.55932065    -0.63200
O303        O  0.17168227  0.39239292  0.55449601    -0.58000
O304        O  0.06919575  0.21177785  0.55943140    -0.94700
O305        O  0.08379184  0.29084372  0.55458477    -0.93100
O306        O  0.27355937  0.38456535  0.55862082    -0.93500
O307        O  0.27387378  0.29454621  0.56255120    -0.92300
C308        C  0.06390617  0.24508600  0.54776330     1.16800
H309        H  0.23204711  0.41438127  0.59970414     0.32700
H310        H  0.21671239  0.23141275  0.60553955     0.43600
H311        H  0.04336936  0.24331274  0.59815037     0.37100
H312        H  0.14886834  0.29605997  0.68252981     0.33600
H313        H  0.35307546  0.35140868  0.59604401     0.25400
H314        H  0.18519385  0.19526933  0.69766278     0.31300
H315        H  0.01775937  0.19161696  0.68890923     0.37200
H316        H  0.31060639  0.40451852  0.55854373     0.31700
H317        H  0.14815329  0.40273884  0.54812420     0.30600
H318        H  0.06209584  0.36938125  0.56988658     0.32200
H319        H  0.97916135  0.23982257  0.62563220     0.31200
H320        H  0.24445165  0.28050677  0.55151375     0.35200
H321        H  0.14207802  0.20165022  0.54597906     0.27900
H322        H  0.23634447  0.45680359  0.68405604     0.32200
H323        H  0.01633578  0.27369852  0.68663924     0.35000
H324        H  0.19992872  0.42347199  0.56123765     0.27600
H325        H  0.16859235  0.18128649  0.56280363     0.40500
H326        H  0.27897923  0.24815937  0.67364156     0.30600
H327        H  0.32993795  0.32746631  0.62140995     0.38200
H328        H  0.00761803  0.29567317  0.63417629     0.30000
H329        H  0.14176883  0.20771280  0.69860857     0.30100
H330        H  0.18334977  0.41419967  0.69288039     0.30400
Zr331      Zr  0.80183032  0.17535635  0.35719164     2.17500
O332        O  0.80604339  0.23377794  0.32586661    -0.52000
O333        O  0.71663699  0.15630035  0.36644826    -0.75200
O334        O  0.77159140  0.13727386  0.31703750    -0.82000
O335        O  0.86887936  0.28465548  0.40096600    -0.83700
O336        O  0.77559905  0.06619167  0.31535985    -0.79300
O337        O  0.82783212  0.26213038  0.36465293    -0.91000
O338        O  0.68946680  0.10448206  0.39924305    -0.76900
O339        O  0.75801734  0.08910167  0.36825429    -0.86400
O340        O  0.79537207  0.17322424  0.40071433    -0.86100
O341        O  0.85372369  0.14376069  0.34187640    -0.72900
O342        O  0.88639550  0.21997767  0.37250677    -0.85000
Zr343      Zr  0.88652639  0.09739035  0.41239349     2.26400
Zr344      Zr  0.81007666  0.05742899  0.35370289     2.06300
Zr345      Zr  0.87899900  0.21610920  0.41612209     2.10000
Zr346      Zr  0.75387299  0.08728954  0.41188804     1.78800
O347        O  0.95207428  0.29799222  0.42338200    -0.93800
O348        O  0.68235572  0.00393627  0.40555445    -0.41600
O349        O  0.83683893  0.13045562  0.42829510    -0.78300
O350        O  0.80241452  0.05230511  0.39727591    -0.97000
O351        O  0.89367021  0.10007406  0.36910245    -0.90300
O352        O  0.92994190  0.18363494  0.40152242    -0.93100
C353        C  0.68362881  0.13039872  0.38268220     1.00700
C354        C  0.85040398  0.29375758  0.38185844     1.13600
C355        C  0.76630745  0.09850988  0.30567507     1.04400
O356        O  0.73040859  0.97979079  0.34989563    -0.95300
O357        O  0.82554818  0.99119319  0.36683718    -0.91000
O358        O  0.87220560  0.01522751  0.40164303    -0.84100
C359        C  0.84853922  0.98368825  0.38453412     1.11000
O360        O  0.95678981  0.24610569  0.32528477    -1.03200
Zr361      Zr  0.93663379  0.18592811  0.35832081     1.88900
O362        O  0.96879956  0.11143443  0.40323373    -0.73900
O363        O  0.84697431  0.03505970  0.32011891    -0.53100
O364        O  0.95332653  0.15386641  0.32097918    -0.97800
O365        O  0.01327573  0.26481821  0.36636948    -0.55000
O366        O  0.99827981  0.16283646  0.37028255    -0.74400
C367        C  0.00222470  0.13589492  0.38707901     0.98000
O368        O  0.86590076  0.04263706  0.44785863    -0.63200
O369        O  0.83230979  0.22399585  0.45002867    -0.58000
O370        O  0.93278849  0.14241696  0.44845021    -0.94700
O371        O  0.92484348  0.21141126  0.45161298    -0.93100
O372        O  0.73133837  0.11627083  0.44856855    -0.93500
O373        O  0.73574597  0.03101597  0.44649031    -0.92300
C374        C  0.94069795  0.18239444  0.45945418     1.16800
H375        H  0.77733881  0.18943877  0.40634297     0.32700
H376        H  0.78634652  0.01785013  0.40254058     0.43600
H377        H  0.96289023  0.20101485  0.40881507     0.37100
H378        H  0.85741669  0.14743105  0.32435244     0.33600
H379        H  0.65352043  0.00537238  0.41258301     0.25400
H380        H  0.81835769  0.00584921  0.31226097     0.31300
H381        H  0.94898014  0.12093040  0.32563290     0.37200
H382        H  0.69523231  0.09229395  0.45098739     0.31700
H383        H  0.82796532  0.19760111  0.46171533     0.30600
H384        H  0.98107531  0.29386922  0.41929699     0.32200
H385        H  0.02965880  0.25810989  0.38028653     0.31200
H386        H  0.76502604  0.04870185  0.45748867     0.35200
H387        H  0.85590639  0.05860547  0.46063606     0.27900
H388        H  0.77185709  0.21936007  0.31897037     0.32200
H389        H  0.99054326  0.25445505  0.31954143     0.35000
H390        H  0.85639828  0.25568819  0.45815165     0.27600
H391        H  0.83407847  0.01217215  0.44352985     0.40500
H392        H  0.70770608  0.98927024  0.34169122     0.30600
H393        H  0.67639687  0.00147774  0.38768915     0.38200
H394        H  0.00165149  0.28691020  0.37322728     0.30000
H395        H  0.85775390  0.06245444  0.30804455     0.30100
H396        H  0.82680654  0.23209591  0.31250602     0.30400
Zr397      Zr  0.74988086  0.83186859  0.91341373     2.17500
O398        O  0.78805006  0.88681188  0.94848347    -0.52000
O399        O  0.81717153  0.81642507  0.90343849    -0.75200
O400        O  0.74945563  0.78398331  0.94916822    -0.82000
O401        O  0.78898047  0.94284538  0.87130039    -0.83700
O402        O  0.67676996  0.70952591  0.94894339    -0.79300
O403        O  0.81530588  0.91666509  0.90405571    -0.91000
O404        O  0.79524909  0.76618972  0.87003737    -0.76900
O405        O  0.70937882  0.74689318  0.90054756    -0.86400
O406        O  0.75302805  0.83349082  0.86986946    -0.86100
O407        O  0.66678883  0.79499287  0.92956893    -0.72900
O408        O  0.70782672  0.87565966  0.90046606    -0.85000
Zr409      Zr  0.58651692  0.75409994  0.85869245     2.26400
Zr410      Zr  0.62564785  0.71045402  0.91549538     2.06300
Zr411      Zr  0.70955773  0.87532641  0.85667629     2.10000
Zr412      Zr  0.71265896  0.74859860  0.85718513     1.78800
O413        O  0.69275105  0.94444126  0.85481846    -0.93800
O414        O  0.70569284  0.66696404  0.86202297    -0.41600
O415        O  0.67004606  0.79075380  0.84333935    -0.78300
O416        O  0.62810507  0.70950719  0.87171598    -0.97000
O417        O  0.58212215  0.75194214  0.90220520    -0.90300
O418        O  0.62594909  0.83896741  0.87167453    -0.93100
C419        C  0.82568246  0.79157639  0.88727378     1.00700
C420        C  0.82085591  0.94975539  0.88815384     1.13600
C421        C  0.71959583  0.74040571  0.95810030     1.04400
O422        O  0.62002331  0.62912429  0.91767102    -0.95300
O423        O  0.54297334  0.64507895  0.90314662    -0.91000
O424        O  0.52040072  0.67153826  0.86923453    -0.84100
C425        C  0.51246396  0.63902674  0.88572519     1.11000
O426        O  0.65509733  0.88281455  0.95341868    -0.97200
Zr427      Zr  0.62366281  0.83644815  0.91534174     1.88900
O428        O  0.52018559  0.77269289  0.86730089    -0.73900
O429        O  0.57782696  0.69641401  0.95298692    -0.53100
O430        O  0.57058421  0.79903495  0.95103591    -0.97800
O431        O  0.63380851  0.91977068  0.91276689    -0.55000
O432        O  0.54143079  0.81826079  0.90231111    -0.74400
C433        C  0.51149735  0.79560006  0.88451022     0.98000
O434        O  0.54304449  0.70193909  0.82339202    -0.63200
O435        O  0.76943623  0.90786119  0.82307101    -0.58000
O436        O  0.59499751  0.78971484  0.81806708    -0.94700
O437        O  0.66894685  0.86250614  0.81693423    -0.93100
O438        O  0.76633993  0.78192849  0.82139175    -0.93500
O439        O  0.67342007  0.69740504  0.82113403    -0.92300
C440        C  0.62844778  0.82859510  0.80677008     1.16800
H441        H  0.78724666  0.85113745  0.86415609     0.32700
H442        H  0.61030630  0.67550183  0.86578022     0.43600
H443        H  0.60948105  0.85598360  0.86499656     0.37100
H444        H  0.66782376  0.79588639  0.94722864     0.33600
H445        H  0.72949877  0.66677613  0.84994529     0.25400
H446        H  0.54486166  0.69103223  0.94753551     0.31300
H447        H  0.53991240  0.76966972  0.94466831     0.37200
H448        H  0.76976019  0.81518751  0.81868533     0.31700
H449        H  0.78027789  0.94388185  0.82214652     0.30600
H450        H  0.69777988  0.95484574  0.83743882     0.32200
H451        H  0.60788356  0.91866116  0.92383811     0.31200
H452        H  0.64559191  0.70348870  0.81706469     0.35200
H453        H  0.54657637  0.67187083  0.82481805     0.27900
H454        H  0.81283418  0.87837721  0.95509954     0.32200
H455        H  0.69187481  0.90242091  0.95123941     0.35000
H456        H  0.79933326  0.90687434  0.82894434     0.27600
H457        H  0.50694526  0.68987105  0.82582931     0.40500
H458        H  0.63909806  0.62832194  0.90331562     0.30600
H459        H  0.72131561  0.66855461  0.87808294     0.38200
H460        H  0.62197106  0.92164494  0.89617569     0.30000
H461        H  0.57086911  0.66314959  0.95877337     0.30100
H462        H  0.76124328  0.87471842  0.96095968     0.30400
Zr463      Zr  0.87082416  0.72070171  0.09323060     2.17500
O464        O  0.92162513  0.75348156  0.05639320    -0.52000
O465        O  0.85655457  0.78977285  0.10094511    -0.75200
O466        O  0.82115454  0.71792761  0.05837542    -0.82000
O467        O  0.98413481  0.76376214  0.13392880    -0.83700
O468        O  0.75007793  0.64217280  0.05743978    -0.79300
O469        O  0.95666314  0.78603507  0.10022087    -0.91000
O470        O  0.80769484  0.77038206  0.13477855    -0.76900
O471        O  0.78632129  0.68114763  0.10678381    -0.86400
O472        O  0.87439336  0.72960014  0.13652776    -0.86100
O473        O  0.83352993  0.63581038  0.07920721    -0.72900
O474        O  0.91537808  0.68074985  0.10775807    -0.85000
Zr475      Zr  0.79561548  0.56288518  0.15184629     2.26400
Zr476      Zr  0.74903775  0.59603968  0.09402102     2.06300
Zr477      Zr  0.91666780  0.68775642  0.15131868     2.10000
Zr478      Zr  0.79000597  0.68936840  0.14996567     1.78800
O479        O  0.99163943  0.68061563  0.15440021    -0.93800
O480        O  0.70822781  0.68225056  0.14454710    -0.41600
O481        O  0.83221372  0.64783036  0.16530693    -0.78300
O482        O  0.75082048  0.60344754  0.13766605    -0.97000
O483        O  0.79237216  0.55501008  0.10846540    -0.90300
O484        O  0.88069843  0.60268482  0.13851579    -0.93100
C485        C  0.83237222  0.79948697  0.11700956     1.00700
C486        C  0.99070985  0.79290434  0.11583856     1.13600
C487        C  0.77935760  0.68608728  0.04869938     1.04400
O488        O  0.67207448  0.59979623  0.09250992    -0.95300
O489        O  0.68263068  0.51679401  0.11033106    -0.91000
O490        O  0.71219932  0.49413311  0.14314700    -0.84100
C491        C  0.67759640  0.48655993  0.12776136     1.11000
O492        O  0.92744684  0.62485634  0.05807429    -0.97200
Zr493      Zr  0.87680335  0.59546891  0.09504780     1.88900
O494        O  0.81102740  0.49408010  0.14428928    -0.73900
O495        O  0.72254043  0.53497270  0.06105472    -0.53100
O496        O  0.83762488  0.53680369  0.06143905    -0.97800
O497        O  0.96133548  0.60799095  0.09694607    -0.55000
O498        O  0.85939932  0.51487157  0.11025679    -0.74400
C499        C  0.83495752  0.48496519  0.12777961     0.98000
O500        O  0.74248201  0.53043276  0.18815289    -0.63200
O501        O  0.94713164  0.75100594  0.18344827    -0.58000
O502        O  0.84047207  0.57063041  0.18969696    -0.94700
O503        O  0.90626479  0.64957009  0.19140654    -0.93100
O504        O  0.82903235  0.74499809  0.18467672    -0.93500
O505        O  0.73912838  0.65851705  0.18676037    -0.92300
C506        C  0.87704785  0.60686244  0.20113962     1.16800
H507        H  0.89209768  0.76440802  0.14122469     0.32700
H508        H  0.71712434  0.58645685  0.14406116     0.43600
H509        H  0.89848169  0.58741105  0.14567373     0.37100
H510        H  0.83378280  0.63480472  0.06155746     0.33600
H511        H  0.71138168  0.71263562  0.15233271     0.25400
H512        H  0.69410765  0.53599301  0.05318638     0.31300
H513        H  0.86213726  0.52636702  0.05689041     0.37200
H514        H  0.83965680  0.72652041  0.19569298     0.31700
H515        H  0.98387134  0.76497979  0.18374413     0.30600
H516        H  0.98476348  0.65651079  0.16782237     0.32200
H517        H  0.95685478  0.57395576  0.09760102     0.31200
H518        H  0.73208475  0.62367335  0.18848144     0.35200
H519        H  0.75729106  0.55756541  0.20046051     0.27900
H520        H  0.91698563  0.78150173  0.05094883     0.32200
H521        H  0.92241884  0.65215072  0.05186476     0.35000
H522        H  0.94259694  0.77848811  0.17706690     0.27600
H523        H  0.71057188  0.52893492  0.18379847     0.40500
H524        H  0.65375793  0.57934145  0.07811068     0.30600
H525        H  0.70602535  0.68745637  0.12681849     0.38200
H526        H  0.97395610  0.62219713  0.11336359     0.30000
H527        H  0.74988863  0.55008130  0.04888069     0.30100
H528        H  0.90474145  0.72728258  0.04376412     0.30400
Zr529      Zr  0.25773092  0.09594063  0.09179355     2.17500
O530        O  0.22448190  0.11470969  0.05533596    -0.52000
O531        O  0.18955621  0.01205775  0.09923805    -0.75200
O532        O  0.25960198  0.04733969  0.05693602    -0.82000
O533        O  0.21087312  0.15714913  0.13666687    -0.83700
O534        O  0.33507127  0.05144037  0.05599521    -0.79300
O535        O  0.19149918  0.11469148  0.10067712    -0.91000
O536        O  0.21301017  0.97921281  0.13018491    -0.76900
O537        O  0.30028733  0.05266746  0.10291921    -0.86400
O538        O  0.25013927  0.08611056  0.13515431    -0.86100
O539        O  0.34225445  0.14864251  0.07794184    -0.72900
O540        O  0.29557681  0.17853545  0.10875786    -0.85000
Zr541      Zr  0.41588931  0.17687980  0.15061904     2.26400
Zr542      Zr  0.38466203  0.10471815  0.09002746     2.06300
Zr543      Zr  0.28937580  0.16838200  0.15222465     2.10000
Zr544      Zr  0.29325154  0.04303898  0.14597004     1.78800
O545        O  0.29775349  0.25094819  0.15469576    -0.93800
O546        O  0.30699785  0.97346220  0.13722820    -0.41600
O547        O  0.33144984  0.12447501  0.16376946    -0.78300
O548        O  0.37871233  0.09409262  0.13353572    -0.97000
O549        O  0.42323400  0.18672713  0.10736093    -0.90300
O550        O  0.37400639  0.22122490  0.13991087    -0.93100
C551        C  0.18179969  0.97634846  0.11380894     1.00700
C552        C  0.18278336  0.13771114  0.11788591     1.13600
C553        C  0.29054764  0.03546022  0.04762997     1.04400
O554        O  0.39405842  0.03098491  0.08927333    -0.95300
O555        O  0.46905262  0.12762406  0.10281897    -0.91000
O556        O  0.48823807  0.17178790  0.13832883    -0.84100
C557        C  0.49886083  0.15176901  0.12052527     1.11000
O558        O  0.34970833  0.25606407  0.06169708    -0.97200
Zr559      Zr  0.38088997  0.23025824  0.09655356     1.88900
O560        O  0.48009252  0.26436591  0.14658795    -0.73900
O561        O  0.43487426  0.13991415  0.05326922    -0.53100
O562        O  0.43917400  0.25517655  0.06238714    -0.97800
O563        O  0.36746251  0.30036982  0.10459417    -0.55000
O564        O  0.46108925  0.29393434  0.11263081    -0.74400
C565        C  0.48972527  0.29874854  0.13074516     0.98000
O566        O  0.45168075  0.15077473  0.18352977    -0.63200
O567        O  0.22884170  0.13567609  0.18551352    -0.58000
O568        O  0.40535336  0.20369026  0.19092681    -0.94700
O569        O  0.32694662  0.19232127  0.19286767    -0.93100
O570        O  0.23708286  0.01708681  0.18098941    -0.93500
O571        O  0.32587573  0.02160020  0.18175093    -0.92300
C572        C  0.36904554  0.20313233  0.20274200     1.16800
H573        H  0.21546794  0.06753113  0.14014774     0.32700
H574        H  0.39747138  0.07828657  0.13864957     0.43600
H575        H  0.38831477  0.25302738  0.14821764     0.37100
H576        H  0.34274180  0.15186593  0.06035830     0.33600
H577        H  0.27369716  0.94308889  0.13896137     0.25400
H578        H  0.44001095  0.11286644  0.04679940     0.31300
H579        H  0.46264571  0.24329069  0.06675678     0.37200
H580        H  0.23629159  0.04753335  0.18589885     0.31700
H581        H  0.21910222  0.16138288  0.18817954     0.30600
H582        H  0.31482986  0.26487183  0.17047330     0.32200
H583        H  0.38211341  0.31296132  0.12095851     0.31200
H584        H  0.36183390  0.03486527  0.17822767     0.35200
H585        H  0.42548188  0.13601345  0.19629576     0.27900
H586        H  0.19843568  0.08184651  0.04896707     0.32200
H587        H  0.37743360  0.28947841  0.05693690     0.35000
H588        H  0.19859184  0.10676278  0.17852863     0.27600
H589        H  0.45291325  0.12151340  0.17699597     0.40500
H590        H  0.40895872  0.03200334  0.07310630     0.30600
H591        H  0.31398402  0.97588054  0.11946840     0.38200
H592        H  0.33086850  0.28496624  0.10703682     0.30000
H593        H  0.41212851  0.14250613  0.04131026     0.30100
H594        H  0.25190242  0.12703228  0.04318265     0.30400
Zr595      Zr  0.13547708  0.84600537  0.91676921     2.17500
O596        O  0.08094137  0.82984377  0.95197509    -0.52000
O597        O  0.15037824  0.92902012  0.90761350    -0.75200
O598        O  0.18496314  0.89350949  0.95206690    -0.82000
O599        O  0.02430632  0.77820010  0.87460537    -0.83700
O600        O  0.25815469  0.89272133  0.95153649    -0.79300
O601        O  0.05062551  0.82743187  0.90841247    -0.91000
O602        O  0.20403503  0.95884284  0.87568379    -0.76900
O603        O  0.22065828  0.88966376  0.90398530    -0.86400
O604        O  0.13410140  0.85083842  0.87326668    -0.86100
O605        O  0.17022538  0.79663707  0.93163126    -0.72900
O606        O  0.08971703  0.76127719  0.90233961    -0.85000
Zr607      Zr  0.20959049  0.76019737  0.85950818     2.26400
Zr608      Zr  0.25517200  0.83972495  0.91766036     2.06300
Zr609      Zr  0.09065802  0.76684082  0.85863946     2.10000
Zr610      Zr  0.21906282  0.89377163  0.86068126     1.78800
O611        O  0.01585974  0.68514554  0.85409166    -0.93800
O612        O  0.30479306  0.96197817  0.86568052    -0.41600
O613        O  0.17543526  0.81024400  0.84508611    -0.78300
O614        O  0.25596106  0.84535070  0.87385672    -0.97000
O615        O  0.21112453  0.75579107  0.90298181    -0.90300
O616        O  0.12446050  0.71635306  0.87220725    -0.93100
C617        C  0.17717625  0.96343971  0.89224289     1.00700
C618        C  0.01771433  0.80187292  0.89209453     1.13600
C619        C  0.22864562  0.90657500  0.96076609     1.04400
O620        O  0.33853422  0.91331636  0.91979252    -0.95300
O621        O  0.31755157  0.81846119  0.90419659    -0.91000
O622        O  0.28999550  0.76960317  0.87021139    -0.84100
C623        C  0.32258946  0.79296537  0.88696149     1.11000
O624        O  0.07071360  0.69222271  0.95071680    -0.97200
Zr625      Zr  0.12632300  0.71302292  0.91570898     1.88900
O626        O  0.19282647  0.67615641  0.86842339    -0.73900
O627        O  0.26803949  0.80302030  0.95445961    -0.53100
O628        O  0.15491060  0.69097554  0.95273949    -0.97800
O629        O  0.04556510  0.63926649  0.90700128    -0.55000
O630        O  0.14934522  0.65184687  0.90397364    -0.74400
C631        C  0.17211528  0.64509271  0.88608261     0.98000
O632        O  0.26537795  0.77846197  0.82450169    -0.63200
O633        O  0.06157516  0.80040851  0.82615678    -0.58000
O634        O  0.16523710  0.72390008  0.82110919    -0.94700
O635        O  0.09951009  0.73720527  0.81896243    -0.93100
O636        O  0.18706442  0.92327101  0.82776906    -0.93500
O637        O  0.26314512  0.90961892  0.82190270    -0.92300
C638        C  0.12859621  0.72336806  0.80945763     1.16800
H639        H  0.11723401  0.86851567  0.86803981     0.32700
H640        H  0.28998750  0.86098304  0.86792339     0.43600
H641        H  0.10674677  0.68345279  0.86497202     0.37100
H642        H  0.16936372  0.79559928  0.94928788     0.33600
H643        H  0.30254500  0.99275115  0.86418252     0.25400
H644        H  0.27543780  0.77718268  0.94843470     0.31300
H645        H  0.19080995  0.70286189  0.94983289     0.37200
H646        H  0.16035753  0.89245484  0.82000742     0.31700
H647        H  0.02590952  0.77493655  0.82369163     0.30600
H648        H  0.99961169  0.68786491  0.83898508     0.32200
H649        H  0.05245145  0.62005996  0.89464624     0.31200
H650        H  0.27851937  0.88813107  0.82232330     0.35200
H651        H  0.25180760  0.79056748  0.81143065     0.27900
H652        H  0.08423005  0.86260569  0.95603760     0.32200
H653        H  0.07472422  0.72464569  0.95608048     0.35000
H654        H  0.06070950  0.82932040  0.83340455     0.27600
H655        H  0.29709497  0.80875292  0.82913788     0.40500
H656        H  0.35349546  0.91597137  0.90346247     0.30600
H657        H  0.31257699  0.96077854  0.88314414     0.38200
H658        H  0.02654043  0.65223900  0.89801552     0.30000
H659        H  0.30029917  0.82950897  0.96120722     0.30100
H660        H  0.09716904  0.82250426  0.96574244     0.30400
Zr661      Zr  0.12234167  0.21809838  0.91437134     2.17500
O662        O  0.14071675  0.17989586  0.94892007    -0.52000
O663        O  0.03949602  0.14902505  0.90526372    -0.75200
O664        O  0.07643175  0.21921524  0.95047836    -0.82000
O665        O  0.18747530  0.17508292  0.86939509    -0.83700
O666        O  0.08003499  0.29437665  0.95152833    -0.79300
O667        O  0.14456760  0.15476488  0.90520756    -0.91000
O668        O  0.00921896  0.17208678  0.87298344    -0.76900
O669        O  0.07913457  0.26136070  0.90402433    -0.86400
O670        O  0.11288894  0.21276967  0.87103049    -0.86100
O671        O  0.17489326  0.30172055  0.92937490    -0.72900
O672        O  0.20513633  0.25633048  0.89778478    -0.85000
Zr673      Zr  0.20498023  0.37988669  0.85763994     2.26400
Zr674      Zr  0.13194664  0.34510237  0.91772003     2.06300
Zr675      Zr  0.19528088  0.25256894  0.85446429     2.10000
Zr676      Zr  0.07026256  0.25660016  0.86086638     1.78800
O677        O  0.27705212  0.25986660  0.84912330    -0.93800
O678        O  0.99785733  0.26341766  0.87296954    -0.41600
O679        O  0.15226538  0.29608136  0.84329836    -0.78300
O680        O  0.12150368  0.34147721  0.87412259    -0.97000
O681        O  0.21417803  0.38407063  0.90093661    -0.90300
O682        O  0.24827653  0.33653372  0.86779294    -0.93100
C683        C  0.00550341  0.14061345  0.88937798     1.00700
C684        C  0.16833591  0.14678284  0.88814171     1.13600
C685        C  0.06514462  0.25031151  0.96007491     1.04400
O686        O  0.06108063  0.35896588  0.92137856    -0.95300
O687        O  0.15260361  0.42919315  0.90663027    -0.91000
O688        O  0.19670636  0.45004021  0.87117197    -0.84100
C689        C  0.17615312  0.45967620  0.88913277     1.11000
O690        O  0.27659803  0.30337913  0.94569241    -0.97200
Zr691      Zr  0.25673024  0.34036860  0.91113417     1.88900
O692        O  0.29107361  0.44548996  0.86450234    -0.73900
O693        O  0.17495091  0.39403837  0.95383147    -0.53100
O694        O  0.29092555  0.39930771  0.94502699    -0.97800
O695        O  0.32439381  0.32435011  0.90097127    -0.55000
O696        O  0.31985017  0.42188903  0.89719754    -0.74400
C697        C  0.32479535  0.45305404  0.88043741     0.98000
O698        O  0.18538074  0.42087694  0.82457078    -0.63200
O699        O  0.15615068  0.19088103  0.82190502    -0.58000
O700        O  0.23676473  0.37275514  0.81781653    -0.94700
O701        O  0.22455700  0.29412474  0.81555880    -0.93100
O702        O  0.04794278  0.21059421  0.82244318    -0.93500
O703        O  0.04230577  0.29143046  0.82860818    -0.92300
C704        C  0.23791498  0.33708748  0.80621752     1.16800
H705        H  0.09490565  0.17848033  0.86553120     0.32700
H706        H  0.10565791  0.36036304  0.86927605     0.43600
H707        H  0.28034167  0.35124418  0.85967204     0.37100
H708        H  0.17775351  0.30144698  0.94696341     0.33600
H709        H  0.97749878  0.23391738  0.88343897     0.25400
H710        H  0.20807440  0.42014788  0.94774803     0.31300
H711        H  0.26785190  0.38257963  0.95886958     0.37200
H712        H  0.06302113  0.18890144  0.82345151     0.31700
H713        H  0.18183822  0.18224498  0.81707128     0.30600
H714        H  0.27161068  0.23429464  0.83672619     0.32200
H715        H  0.33893148  0.34267982  0.88554881     0.31200
H716        H  0.07283821  0.31273016  0.81892789     0.35200
H717        H  0.17060650  0.39575447  0.81133257     0.27900
H718        H  0.10786551  0.15184303  0.95412526     0.32200
H719        H  0.31281303  0.32566644  0.94883270     0.35000
H720        H  0.12972017  0.16029308  0.82994598     0.27600
H721        H  0.15671092  0.42403563  0.83042850     0.40500
H722        H  0.06566863  0.37553263  0.93743167     0.30600
H723        H  0.01145633  0.29209300  0.88439467     0.38200
H724        H  0.30736007  0.28859247  0.89631534     0.30000
H725        H  0.15724724  0.41241961  0.95790336     0.30100
H726        H  0.15125628  0.20465601  0.96233479     0.30400
Zr727      Zr  0.87980993  0.10515337  0.09226911     2.17500
O728        O  0.86000515  0.05141679  0.05648249    -0.52000
O729        O  0.96313801  0.11875723  0.10024197    -0.75200
O730        O  0.92721054  0.15258026  0.05699228    -0.82000
O731        O  0.81000348  0.99353328  0.13358649    -0.83700
O732        O  0.92670495  0.22574690  0.05661051    -0.79300
O733        O  0.85963206  0.02002848  0.09984734    -0.91000
O734        O  0.99367081  0.16928621  0.13334847    -0.76900
O735        O  0.92596206  0.18999541  0.10513092    -0.86400
O736        O  0.88546170  0.10287498  0.13561031    -0.86100
O737        O  0.83220057  0.14222940  0.07791117    -0.72900
O738        O  0.79509523  0.06166859  0.10682751    -0.85000
Zr739      Zr  0.79941195  0.18357631  0.15004420     2.26400
Zr740      Zr  0.87820592  0.22706000  0.09178189     2.06300
Zr741      Zr  0.80128167  0.06159535  0.15035839     2.10000
Zr742      Zr  0.93068965  0.18760610  0.14838610     1.78800
O743        O  0.71787181  0.98828688  0.15309187    -0.93800
O744        O  0.00687521  0.26842263  0.14433536    -0.41600
O745        O  0.84713451  0.14651643  0.16390031    -0.78300
O746        O  0.88469960  0.22757919  0.13565011    -0.97000
O747        O  0.79402194  0.18536871  0.10668678    -0.90300
O748        O  0.75273061  0.09835959  0.13746802    -0.93100
C749        C  0.99758656  0.14344206  0.11603407     1.00700
C750        C  0.83313699  0.98676115  0.11580079     1.13600
C751        C  0.93990347  0.19545434  0.04770314     1.04400
O752        O  0.95639139  0.30645930  0.08971281    -0.95300
O753        O  0.86300044  0.29341999  0.10546367    -0.91000
O754        O  0.81701818  0.26758059  0.14031892    -0.84100
C755        C  0.84016315  0.29997709  0.12347499     1.11000
O756        O  0.72655606  0.04430698  0.05909317    -0.97200
Zr757      Zr  0.74861368  0.10063220  0.09396461     1.88900
O758        O  0.71572238  0.16857673  0.14189395    -0.73900
O759        O  0.84360554  0.24561709  0.05582681    -0.53100
O760        O  0.73165938  0.13510233  0.05751413    -0.97800
O761        O  0.67113622  0.02188786  0.10107767    -0.55000
O762        O  0.69008003  0.12705904  0.10585925    -0.74400
C763        C  0.68464701  0.14985634  0.12412034     0.98000
O764        O  0.80679571  0.23203496  0.18660820    -0.63200
O765        O  0.83326484  0.03014694  0.18251440    -0.58000
O766        O  0.76932723  0.14395201  0.18973296    -0.94700
O767        O  0.77305694  0.07252366  0.19013220    -0.93100
O768        O  0.94472050  0.14687534  0.18320130    -0.93500
O769        O  0.95502997  0.24103815  0.18439490    -0.92300
C770        C  0.76444037  0.10478525  0.20052303     1.16800
H771        H  0.90231625  0.08502350  0.14058076     0.32700
H772        H  0.90166386  0.26150526  0.14170382     0.43600
H773        H  0.71990380  0.08158331  0.14486804     0.37100
H774        H  0.83069242  0.14128022  0.06026445     0.33600
H775        H  0.03333867  0.26391606  0.15218419     0.25400
H776        H  0.81920557  0.25463904  0.06231775     0.31300
H777        H  0.73953657  0.16917100  0.06230766     0.37200
H778        H  0.91409450  0.13439278  0.19327003     0.31700
H779        H  0.80544645  0.99595728  0.18596026     0.30600
H780        H  0.70507796  0.99027888  0.16939550     0.32200
H781        H  0.65488361  0.02808699  0.11518264     0.31200
H782        H  0.92605018  0.24570552  0.18765483     0.35200
H783        H  0.84160119  0.26044413  0.18654349     0.27900
H784        H  0.89267445  0.05840225  0.04973669     0.32200
H785        H  0.69428657  0.03965822  0.05289957     0.35000
H786        H  0.85932647  0.02506676  0.17468697     0.27600
H787        H  0.78541713  0.24710549  0.18376721     0.40500
H788        H  0.96815110  0.31403973  0.10685716     0.30600
H789        H  0.01492337  0.27146111  0.12667952     0.38200
H790        H  0.68209042  0.99886588  0.10745355     0.30000
H791        H  0.87148236  0.27748054  0.04951879     0.30100
H792        H  0.84636784  0.06522569  0.04429327     0.30400
C793        C  0.03037237  0.27214256  0.99633317    -0.27000
C794        C  0.03294177  0.23502207  0.98251892    -0.15000
C795        C  0.00452376  0.18463424  0.99037786     0.35600
C796        C  0.97487151  0.17309651  0.01160786    -0.26400
C797        C  0.97202039  0.21027943  0.02527149    -0.15700
C798        C  0.00056424  0.26055821  0.01746813     0.36700
N799        N  0.99989800  0.30002083  0.03109152    -0.89900
H800        H  0.05232258  0.31091672  0.99080150     0.17800
H801        H  0.95314879  0.13438198  0.01728367     0.17800
N802        N  0.00523221  0.14510615  0.97680005    -0.88900
H803        H  0.02160629  0.33452993  0.02246266     0.35100
H804        H  0.01689445  0.30246818  0.04799243     0.40200
H805        H  0.98811741  0.14243096  0.95990522     0.39900
H806        H  0.98363495  0.11064109  0.98549244     0.34800
C807        C  0.16848682  0.57361692  0.90883644    -0.27000
C808        C  0.17488619  0.59845290  0.88639023    -0.15000
C809        C  0.18445807  0.57865930  0.86510085     0.35600
C810        C  0.18572979  0.53396082  0.86667880    -0.26400
C811        C  0.17828522  0.50867755  0.88902460    -0.15700
C812        C  0.17121028  0.52972943  0.91050742     0.36700
N813        N  0.16784882  0.50722532  0.93399542    -0.89900
H814        H  0.16240869  0.58910133  0.92538619     0.17800
H815        H  0.19142355  0.51820242  0.85012918     0.17800
N816        N  0.19209281  0.60330536  0.84187420    -0.88900
H817        H  0.16264363  0.52742916  0.94788451     0.35100
H818        H  0.20238372  0.50964725  0.93743284     0.40200
H819        H  0.15813337  0.60055458  0.83670894     0.39900
H820        H  0.20085676  0.58497155  0.82836756     0.34800
C821        C  0.14227476  0.06332856  0.90646316    -0.27000
C822        C  0.17349376  0.10154576  0.89020241    -0.15000
C823        C  0.20897689  0.09578909  0.87632993     0.35600
C824        C  0.20892228  0.05039335  0.87729456    -0.26400
C825        C  0.17676101  0.01147948  0.89305868    -0.15700
C826        C  0.14447081  0.01914150  0.90861469     0.36700
N827        N  0.11391019  0.98237801  0.92652892    -0.89900
H828        H  0.11596486  0.06789463  0.91773062     0.17800
H829        H  0.23501152  0.04590999  0.86581827     0.17800
N830        N  0.24578902  0.13626355  0.86174182    -0.88900
H831        H  0.09034787  0.99263225  0.93537225     0.35100
H832        H  0.13797627  0.98216821  0.93997938     0.40200
H833        H  0.26908380  0.16494767  0.87374037     0.39900
H834        H  0.26879418  0.12565102  0.85261449     0.34800
C835        C  0.30987393  0.99722376  0.01156337    -0.27000
C836        C  0.27396095  0.00124323  0.02577480    -0.15000
C837        C  0.22292573  0.97267400  0.01871261     0.35600
C838        C  0.20968515  0.94320896  0.99735153    -0.26400
C839        C  0.24558426  0.93957037  0.98300807    -0.15700
C840        C  0.29648846  0.96710739  0.99036390     0.36700
N841        N  0.33475999  0.96528890  0.97615863    -0.89900
H842        H  0.34900518  0.01848429  0.01673058     0.17800
H843        H  0.17053601  0.92190221  0.99221399     0.17800
N844        N  0.18428398  0.97258532  0.03345109    -0.88900
H845        H  0.36982049  0.98615730  0.98448197     0.35100
H846        H  0.33693325  0.98252567  0.95937630     0.40200
H847        H  0.18326022  0.95515659  0.05002508     0.39900
H848        H  0.14909877  0.95094130  0.02535715     0.34800
C849        C  0.09422007  0.10258238  0.10482205    -0.27000
C850        C  0.13670192  0.14139236  0.11622069    -0.15000
C851        C  0.13367637  0.18225133  0.12610969     0.35600
C852        C  0.08846173  0.18234335  0.12506155    -0.26400
C853        C  0.04528508  0.14251018  0.11457496    -0.15700
C854        C  0.04869773  0.10225367  0.10416570     0.36700
N855        N  0.00626386  0.05914968  0.09402108    -0.89900
H856        H  0.09578837  0.07115743  0.09704403     0.17800
H857        H  0.08712259  0.21394393  0.13282225     0.17800
N858        N  0.17590256  0.22488561  0.13680201    -0.88900
H859        H  0.99334219  0.06992712  0.07882107     0.35100
H860        H  0.97828818  0.04387331  0.10734454     0.40200
H861        H  0.20551458  0.23932272  0.12431116     0.39900
H862        H  0.18645749  0.21404255  0.15279842     0.34800
C863        C  0.56812777  0.15283136  0.14394065    -0.27000
C864        C  0.54840507  0.15543540  0.12115098    -0.15000
C865        C  0.57630677  0.16100055  0.09972643     0.35600
C866        C  0.62120717  0.16050572  0.10142868    -0.26400
C867        C  0.63961035  0.15512884  0.12408018    -0.15700
C868        C  0.61335788  0.15289104  0.14567403     0.36700
N869        N  0.63044745  0.14880977  0.16949171    -0.89900
H870        H  0.54756030  0.14935368  0.16057977     0.17800
H871        H  0.64179530  0.16404671  0.08478460     0.17800
N872        N  0.56092375  0.16857235  0.07611799    -0.88900
H873        H  0.66482152  0.18095701  0.17295028     0.35100
H874        H  0.63513465  0.11754439  0.16983869     0.40200
H875        H  0.55485218  0.19895078  0.07712075     0.39900
H876        H  0.52766516  0.13656568  0.07110050     0.34800
C877        C  0.12987325  0.88538066  0.12237632    -0.27000
C878        C  0.13336026  0.92875977  0.11214282    -0.15000
C879        C  0.09011573  0.92619111  0.10163113     0.35600
C880        C  0.04471663  0.88059409  0.10179831    -0.26400
C881        C  0.04078792  0.83803647  0.11319955    -0.15700
C882        C  0.08424616  0.84021050  0.12311088     0.36700
N883        N  0.08203835  0.79669776  0.13397053    -0.89900
H884        H  0.16289186  0.88672840  0.13013853     0.17800
H885        H  0.01156208  0.87909807  0.09413827     0.17800
N886        N  0.09154389  0.97021376  0.09197268    -0.88900
H887        H  0.11691955  0.80508706  0.14105013     0.35100
H888        H  0.07360480  0.77045678  0.12005517     0.40200
H889        H  0.09804474  0.99432336  0.10668792     0.39900
H890        H  0.05675586  0.96163331  0.08469084     0.34800
C891        C  0.62713568  0.39685865  0.14027929    -0.27000
C892        C  0.62866336  0.43958670  0.13030707    -0.15000
C893        C  0.58345732  0.43642790  0.12263690     0.35600
C894        C  0.53845475  0.39065428  0.12402703    -0.26400
C895        C  0.53723115  0.34727543  0.13286218    -0.15700
C896        C  0.58240534  0.35087949  0.14134499     0.36700
N897        N  0.58482379  0.30824297  0.14988358    -0.89900
H898        H  0.66130117  0.39864173  0.14655028     0.17800
H899        H  0.50426193  0.38894153  0.11773777     0.17800
N900        N  0.58288377  0.47964108  0.11351169    -0.88900
H901        H  0.57104272  0.28090808  0.13620892     0.35100
H902        H  0.56267580  0.29417081  0.16552547     0.40200
H903        H  0.56861204  0.47193956  0.09569929     0.39900
H904        H  0.55844989  0.48563169  0.12433934     0.34800
C905        C  0.79020738  0.84903657  0.12332835    -0.27000
C906        C  0.83240379  0.84727798  0.11506786    -0.15000
C907        C  0.87366474  0.89103849  0.10553493     0.35600
C908        C  0.87195211  0.93560910  0.10494884    -0.26400
C909        C  0.83053294  0.93773587  0.11412714    -0.15700
C910        C  0.78864135  0.89361985  0.12282820     0.36700
N911        N  0.74458330  0.89412549  0.13101547    -0.89900
H912        H  0.75807221  0.81529143  0.13014052     0.17800
H913        H  0.90392901  0.96927060  0.09807572     0.17800
N914        N  0.91766142  0.89058398  0.09717641    -0.88900
H915        H  0.71736586  0.85866298  0.13703916     0.35100
H916        H  0.72933416  0.90263606  0.11591560     0.40200
H917        H  0.93395141  0.88353915  0.11232974     0.39900
H918        H  0.94425139  0.92573469  0.09050391     0.34800
C919        C  0.87885407  0.43782217  0.11989232    -0.27000
C920        C  0.83577209  0.43736447  0.12856454    -0.15000
C921        C  0.79422133  0.39124554  0.13587088     0.35600
C922        C  0.79696549  0.34734157  0.13437652    -0.26400
C923        C  0.83976785  0.34779366  0.12507600    -0.15700
C924        C  0.88130324  0.39403953  0.11797805     0.36700
N925        N  0.92716705  0.39828291  0.10944267    -0.89900
H926        H  0.91118899  0.47276198  0.11432688     0.17800
H927        H  0.76469266  0.31228520  0.13986967     0.17800
N928        N  0.74791137  0.38718585  0.14350692    -0.88900
H929        H  0.92050469  0.37906377  0.09290996     0.35100
H930        H  0.93997014  0.38243338  0.12245466     0.40200
H931        H  0.73536783  0.40155823  0.12961625     0.39900
H932        H  0.75411855  0.40829547  0.15938198     0.34800
C933        C  0.42267569  0.59069656  0.87398787    -0.27000
C934        C  0.46490528  0.59119984  0.88409378    -0.15000
C935        C  0.46142525  0.54598694  0.89175223     0.35600
C936        C  0.41551758  0.50148636  0.88971746    -0.26400
C937        C  0.37288020  0.50088470  0.88011698    -0.15700
C938        C  0.37651604  0.54611686  0.87210619     0.36700
N939        N  0.33331592  0.54704397  0.86278756    -0.89900
H940        H  0.42536881  0.62548079  0.86808029     0.17800
H941        H  0.41308413  0.46685442  0.89565995     0.17800
N942        N  0.50457588  0.54518392  0.90123409    -0.88900
H943        H  0.34275135  0.58323401  0.85743108     0.35100
H944        H  0.30774531  0.53739574  0.87714606     0.40200
H945        H  0.53051660  0.55539159  0.88700882     0.39900
H946        H  0.49532478  0.50900502  0.90648090     0.34800
C947        C  0.91500285  0.08809816  0.87979557    -0.27000
C948        C  0.95860039  0.09154414  0.88979004    -0.15000
C949        C  0.95643220  0.04821858  0.89963492     0.35600
C950        C  0.91110504  0.00262167  0.89917066    -0.26400
C951        C  0.86751543  0.99912866  0.88903896    -0.15700
C952        C  0.86954870  0.04267765  0.87940194     0.36700
N953        N  0.82548840  0.04095979  0.86943522    -0.89900
H954        H  0.91612572  0.12127454  0.87248943     0.17800
H955        H  0.91036318  0.96956015  0.90639620     0.17800
N956        N  0.00025493  0.04992425  0.90965113    -0.88900
H957        H  0.83367986  0.07602201  0.86281211     0.35100
H958        H  0.80000569  0.03234864  0.88374661     0.40200
H959        H  0.00702301  0.02472293  0.89996381     0.39900
H960        H  0.99275340  0.03791869  0.92783013     0.34800
C961        C  0.42049573  0.75476318  0.87430622    -0.27000
C962        C  0.46357711  0.79570807  0.88418289    -0.15000
C963        C  0.45981416  0.83544797  0.89466016     0.35600
C964        C  0.41347316  0.83327291  0.89547998    -0.26400
C965        C  0.37020540  0.79221082  0.88596387    -0.15700
C966        C  0.37386755  0.75252769  0.87520972     0.36700
N967        N  0.33033536  0.70939222  0.86575876    -0.89900
H968        H  0.42267733  0.72371195  0.86642171     0.17800
H969        H  0.41163981  0.86451135  0.90335705     0.17800
N970        N  0.50315196  0.87868652  0.90416569    -0.88900
H971        H  0.32619279  0.67787709  0.87500220     0.35100
H972        H  0.33658883  0.70569104  0.84728795     0.40200
H973        H  0.49661976  0.88252444  0.92258154     0.39900
H974        H  0.50746869  0.91009448  0.89476066     0.34800
C975        C  0.92733423  0.75684905  0.88239207    -0.27000
C976        C  0.96846820  0.79901539  0.89282851    -0.15000
C977        C  0.96202666  0.83858308  0.90152678     0.35600
C978        C  0.91516143  0.83495261  0.89958965    -0.26400
C979        C  0.87430089  0.79311500  0.88878615    -0.15700
C980        C  0.88071951  0.75376197  0.88003996     0.36700
N981        N  0.84014721  0.71041615  0.86888914    -0.89900
H982        H  0.93142426  0.72607998  0.87564348     0.17800
H983        H  0.91107084  0.86586356  0.90610348     0.17800
N984        N  0.00248168  0.88378936  0.91138371    -0.88900
H985        H  0.83419177  0.67896787  0.87882964     0.35100
H986        H  0.85105844  0.70719499  0.85119357     0.40200
H987        H  0.03129287  0.89954798  0.89847253     0.39900
H988        H  0.01555592  0.87533761  0.92729612     0.34800
C989        C  0.76279843  0.76255134  0.99839509    -0.27000
C990        C  0.73491131  0.72551804  0.98097379    -0.15000
C991        C  0.72167577  0.67533862  0.98614877     0.35600
C992        C  0.73670562  0.66375938  0.00821132    -0.26400
C993        C  0.76449157  0.70078645  0.02564921    -0.15700
C994        C  0.77756043  0.75096009  0.02051812     0.36700
N995        N  0.80453292  0.79090874  0.03755745    -0.89900
H996        H  0.77266418  0.80099309  0.99497890     0.17800
H997        H  0.72678649  0.62531083  0.01164911     0.17800
N998        N  0.69394607  0.63533318  0.96927171    -0.88900
H999        H  0.84067157  0.79657760  0.03974584     0.35100
H1000       H  0.78587897  0.78118627  0.05435873     0.40200
H1001       H  0.71220183  0.64479116  0.95237126     0.39900
H1002       H  0.65799556  0.63027158  0.96729980     0.34800
C1003       C  0.74855209  0.13114103  0.26718209    -0.27000
C1004       C  0.75301567  0.09314038  0.27911666    -0.15000
C1005       C  0.75099647  0.05406882  0.26477748     0.35600
C1006       C  0.75027581  0.05669083  0.23922207    -0.26400
C1007       C  0.75182537  0.09770587  0.22718462    -0.15700
C1008       C  0.74766512  0.13377536  0.24146740     0.36700
N1009       N  0.74477882  0.17418930  0.23002791    -0.89900
H1010       H  0.74823977  0.16049449  0.27786657     0.17800
H1011       H  0.75143149  0.02743998  0.22882031     0.17800
N1012       N  0.75175734  0.01240280  0.27587455    -0.88900
H1013       H  0.74409290  0.19848489  0.24312448     0.35100
H1014       H  0.71062147  0.15871830  0.22068841     0.40200
H1015       H  0.78303172  0.01128848  0.26931464     0.39900
H1016       H  0.71966398  0.97967722  0.27030227     0.34800
C1017       C  0.25479076  0.38488850  0.76695140    -0.27000
C1018       C  0.25218571  0.34422682  0.77981408    -0.15000
C1019       C  0.25772872  0.30788148  0.76657001     0.35600
C1020       C  0.25720819  0.30857328  0.74089585    -0.26400
C1021       C  0.25355706  0.34592597  0.72787616    -0.15700
C1022       C  0.25663891  0.38679083  0.74119842     0.36700
N1023       N  0.25992744  0.42928638  0.72871100    -0.89900
H1024       H  0.25312336  0.41433754  0.77690049     0.17800
H1025       H  0.25760520  0.27834089  0.73106901     0.17800
N1026       N  0.26231468  0.26939235  0.77912438    -0.88900
H1027       H  0.29421953  0.44695848  0.71949800     0.35100
H1028       H  0.26089472  0.45539059  0.74119098     0.40200
H1029       H  0.29585211  0.28688747  0.78902194     0.39900
H1030       H  0.26545077  0.24538938  0.76670538     0.34800
C1031       C  0.01375801  0.18093436  0.51594939    -0.27000
C1032       C  0.03224807  0.22957055  0.52515025    -0.15000
C1033       C  0.01916140  0.26192434  0.51282575     0.35600
C1034       C  0.98977370  0.24550008  0.49154251    -0.26400
C1035       C  0.97110368  0.19689588  0.48241846    -0.15700
C1036       C  0.98247941  0.16382095  0.49522548     0.36700
N1037       N  0.96137931  0.11260491  0.48767576    -0.89900
H1038       H  0.02283413  0.15548293  0.52525231     0.17800
H1039       H  0.98094855  0.27106782  0.48217537     0.17800
N1040       N  0.03463082  0.31110391  0.52206810    -0.88900
H1041       H  0.92284784  0.09507933  0.49088649     0.35100
H1042       H  0.97474246  0.09393065  0.49857585     0.40200
H1043       H  0.01356918  0.30644167  0.53782095     0.39900
H1044       H  0.02554603  0.33134229  0.50979053     0.34800
C1045       C  0.08453543  0.70292692  0.74256360    -0.27000
C1046       C  0.12679575  0.70681981  0.73056722    -0.15000
C1047       C  0.16450832  0.70633281  0.74541435     0.35600
C1048       C  0.16120373  0.70667893  0.77096599    -0.26400
C1049       C  0.12241510  0.70981612  0.78279954    -0.15700
C1050       C  0.08235233  0.70565716  0.76810781     0.36700
N1051       N  0.03966581  0.70604129  0.77816891    -0.89900
H1052       H  0.05406849  0.70149963  0.73200485     0.17800
H1053       H  0.19185232  0.70851628  0.78153109     0.17800
N1054       N  0.20842378  0.70857113  0.73548001    -0.88900
H1055       H  0.05101063  0.74118410  0.78568731     0.35100
H1056       H  0.02364695  0.67844050  0.79164349     0.40200
H1057       H  0.22959551  0.74311532  0.72693802     0.39900
H1058       H  0.19779008  0.67943090  0.72295118     0.34800
C1059       C  0.16165725  0.51809802  0.64493365    -0.27000
C1060       C  0.15906893  0.49641840  0.62195338    -0.15000
C1061       C  0.15549075  0.52038462  0.60063748     0.35600
C1062       C  0.15605024  0.56585820  0.60282447    -0.26400
C1063       C  0.15952621  0.58797688  0.62574940    -0.15700
C1064       C  0.16107762  0.56316383  0.64708909     0.36700
N1065       N  0.16075546  0.58299123  0.67081569    -0.89900
H1066       H  0.16321219  0.49930973  0.66137156     0.17800
H1067       H  0.15471788  0.58466635  0.58634529     0.17800
N1068       N  0.15228836  0.49923329  0.57681014    -0.88900
H1069       H  0.16234612  0.56032611  0.68459647     0.35100
H1070       H  0.12632859  0.58158886  0.67277423     0.40200
H1071       H  0.18623154  0.50036930  0.57350534     0.39900
H1072       H  0.14856598  0.52098363  0.56320175     0.34800
C1073       C  0.14788656  0.01461482  0.60494979    -0.27000
C1074       C  0.16412053  0.00170576  0.62635782    -0.15000
C1075       C  0.17437201  0.03188318  0.64739087     0.35600
C1076       C  0.17003556  0.07497368  0.64615823    -0.26400
C1077       C  0.15511282  0.08873262  0.62454305    -0.15700
C1078       C  0.14341171  0.05760434  0.60370553     0.36700
N1079       N  0.12826201  0.07003404  0.58112254    -0.89900
H1080       H  0.13968532  0.99164182  0.58874524     0.17800
H1081       H  0.17814556  0.09782621  0.66239933     0.17800
N1082       N  0.18844817  0.01855691  0.67005121    -0.88900
H1083       H  0.11840799  0.04174706  0.56814744     0.35100
H1084       H  0.15958498  0.10166161  0.57410047     0.40200
H1085       H  0.15764978  0.98526121  0.67612718     0.39900
H1086       H  0.19564206  0.04531788  0.68353810     0.34800
C1087       C  0.41537831  0.20988244  0.24135681    -0.27000
C1088       C  0.37548825  0.21179921  0.22983203    -0.15000
C1089       C  0.34113086  0.21737020  0.24490873     0.35600
C1090       C  0.34531015  0.21687979  0.27041405    -0.26400
C1091       C  0.38239751  0.21003191  0.28194503    -0.15700
C1092       C  0.41898910  0.20840380  0.26683543     0.36700
N1093       N  0.45933306  0.20321972  0.27641913    -0.89900
H1094       H  0.44298966  0.20661376  0.23051898     0.17800
H1095       H  0.31736161  0.21958429  0.28124901     0.17800
N1096       N  0.30113088  0.22309768  0.23518024    -0.88900
H1097       H  0.44445934  0.16885515  0.28536194     0.35100
H1098       H  0.48003906  0.23264986  0.28853008     0.40200
H1099       H  0.27550246  0.19012102  0.22636804     0.39900
H1100       H  0.31594562  0.25286265  0.22278717     0.34800
C1101       C  0.23376876  0.99401312  0.50065729    -0.27000
C1102       C  0.27462647  0.99841703  0.48715724    -0.15000
C1103       C  0.29954708  0.97334941  0.49587911     0.35600
C1104       C  0.28294165  0.94469659  0.51744097    -0.26400
C1105       C  0.24151598  0.93942813  0.53073418    -0.15700
C1106       C  0.21739023  0.96562821  0.52239202     0.36700
N1107       N  0.17678473  0.96407986  0.53602633    -0.89900
H1108       H  0.21479976  0.01355965  0.49443909     0.17800
H1109       H  0.30211938  0.92529546  0.52354512     0.17800
N1110       N  0.34092233  0.97578730  0.48259456    -0.88900
H1111       H  0.16259234  0.98435243  0.52710666     0.35100
H1112       H  0.19145885  0.98230316  0.55265863     0.40200
H1113       H  0.32672472  0.95645953  0.46616811     0.39900
H1114       H  0.35632530  0.95713629  0.49199867     0.34800
C1115       C  0.07283643  0.13617199  0.36541352    -0.27000
C1116       C  0.04781546  0.13153982  0.38746317    -0.15000
C1117       C  0.06557027  0.12099315  0.40923918     0.35600
C1118       C  0.10729718  0.11418655  0.40829573    -0.26400
C1119       C  0.13284112  0.11942966  0.38624802    -0.15700
C1120       C  0.11490711  0.13010880  0.36447191     0.36700
N1121       N  0.13914233  0.13455847  0.34139673    -0.89900
H1122       H  0.05896153  0.14371522  0.34865628     0.17800
H1123       H  0.12106490  0.10668733  0.42509081     0.17800
N1124       N  0.04218764  0.11870798  0.43232695    -0.88900
H1125       H  0.12213192  0.14394240  0.32741490     0.35100
H1126       H  0.13404915  0.09935640  0.33703775     0.40200
H1127       H  0.04777891  0.15439440  0.43597183     0.39900
H1128       H  0.05958286  0.11031543  0.44650571     0.34800
C1129       C  0.59433856  0.09008757  0.39489653    -0.27000
C1130       C  0.63537489  0.12999368  0.38306627    -0.15000
C1131       C  0.62994953  0.16943409  0.37346682     0.35600
C1132       C  0.58384448  0.16786785  0.37566090    -0.26400
C1133       C  0.54307426  0.12817213  0.38779275    -0.15700
C1134       C  0.54867160  0.08896699  0.39747244     0.36700
N1135       N  0.50788394  0.04729279  0.40948518    -0.89900
H1136       H  0.59755119  0.05926627  0.40234280     0.17800
H1137       H  0.58036040  0.19857278  0.36826402     0.17800
N1138       N  0.67137532  0.21192201  0.36226359    -0.88900
H1139       H  0.51945868  0.04484545  0.42717019     0.35100
H1140       H  0.50019156  0.01477198  0.40005322     0.40200
H1141       H  0.67804322  0.24389694  0.37192438     0.39900
H1142       H  0.66106489  0.21510978  0.34441766     0.34800
C1143       C  0.91893271  0.63095101  0.26810529    -0.27000
C1144       C  0.87735595  0.59113092  0.27978170    -0.15000
C1145       C  0.84096549  0.55240903  0.26481427     0.35600
C1146       C  0.84474300  0.55666103  0.23934413    -0.26400
C1147       C  0.88285155  0.59956415  0.22777668    -0.15700
C1148       C  0.92178026  0.63609972  0.24263182     0.36700
N1149       N  0.96414408  0.67968911  0.23276658    -0.89900
H1150       H  0.94845205  0.66054762  0.27881956     0.17800
H1151       H  0.81506288  0.52724785  0.22862578     0.17800
N1152       N  0.79803908  0.50939789  0.27454286    -0.88900
H1153       H  0.95221238  0.70275855  0.22487413     0.35100
H1154       H  0.98125600  0.66865041  0.21962112     0.40200
H1155       H  0.77536522  0.52108410  0.28300364     0.39900
H1156       H  0.80981073  0.49178300  0.28706905     0.34800
C1157       C  0.87685896  0.87911934  0.39793398    -0.27000
C1158       C  0.83483606  0.83773350  0.38746596    -0.15000
C1159       C  0.79739905  0.84524824  0.37637463     0.35600
C1160       C  0.80342087  0.89304912  0.37554602    -0.26400
C1161       C  0.84560009  0.93437094  0.38565258    -0.15700
C1162       C  0.88263390  0.92727170  0.39723356     0.36700
N1163       N  0.92603529  0.96877120  0.40809943    -0.89900
H1164       H  0.90585133  0.87413748  0.40642785     0.17800
H1165       H  0.77405856  0.89765122  0.36718490     0.17800
N1166       N  0.75200670  0.80526916  0.36635081    -0.88900
H1167       H  0.94695806  0.99330553  0.39403802     0.35100
H1168       H  0.94903420  0.95693137  0.41626711     0.40200
H1169       H  0.73409632  0.77768564  0.37969616     0.39900
H1170       H  0.76041057  0.79047368  0.35110441     0.34800
C1171       C  0.88382323  0.42840536  0.39385835    -0.27000
C1172       C  0.85048665  0.43371654  0.37819129    -0.15000
C1173       C  0.82040829  0.39372255  0.36202960     0.35600
C1174       C  0.82231737  0.34944466  0.36309166    -0.26400
C1175       C  0.85385583  0.34344846  0.37969061    -0.15700
C1176       C  0.88648411  0.38439780  0.39451896     0.36700
N1177       N  0.92247895  0.38151066  0.41017151    -0.89900
H1178       H  0.90821272  0.45881454  0.40587778     0.17800
H1179       H  0.79764302  0.31891934  0.35116845     0.17800
N1180       N  0.78678311  0.39597140  0.34463546    -0.88900
H1181       H  0.94287332  0.41448262  0.42020666     0.35100
H1182       H  0.94823310  0.37855210  0.39889075     0.40200
H1183       H  0.76032391  0.40131933  0.35395800     0.39900
H1184       H  0.80720613  0.42579459  0.33267704     0.34800
C1185       C  0.04081560  0.87612806  0.39795014    -0.27000
C1186       C  0.03700914  0.83170744  0.38915850    -0.15000
C1187       C  0.08069745  0.83178343  0.38121908     0.35600
C1188       C  0.12687669  0.87650180  0.38170274    -0.26400
C1189       C  0.13076393  0.92106754  0.39036210    -0.15700
C1190       C  0.08705681  0.92096489  0.39838524     0.36700
N1191       N  0.08939713  0.96649603  0.40630462    -0.89900
H1192       H  0.00728967  0.87616897  0.40385045     0.17800
H1193       H  0.16025946  0.87630566  0.37569282     0.17800
N1194       N  0.07827135  0.78627989  0.37317507    -0.88900
H1195       H  0.05408979  0.95977666  0.41181128     0.35100
H1196       H  0.09953878  0.99037287  0.39118881     0.40200
H1197       H  0.06741315  0.76200256  0.38815159     0.39900
H1198       H  0.11365859  0.79284461  0.36792301     0.34800
C1199       C  0.58714887  0.42774142  0.39271907    -0.27000
C1200       C  0.62987274  0.42802993  0.38372533    -0.15000
C1201       C  0.62532871  0.38338477  0.37441676     0.35600
C1202       C  0.57852014  0.33954800  0.37432672    -0.26400
C1203       C  0.53585495  0.33891319  0.38375986    -0.15700
C1204       C  0.54052335  0.38399418  0.39299728     0.36700
N1205       N  0.49883831  0.38707106  0.40247794    -0.89900
H1206       H  0.58999721  0.46186914  0.39977308     0.17800
H1207       H  0.57603568  0.30536712  0.36759369     0.17800
N1208       N  0.66840363  0.38172977  0.36598272    -0.88900
H1209       H  0.48615436  0.36587087  0.41847462     0.35100
H1210       H  0.47023657  0.37309001  0.38940156     0.40200
H1211       H  0.67204674  0.35541678  0.37650465     0.39900
H1212       H  0.66195998  0.36925547  0.34786154     0.34800
C1213       C  0.58343642  0.79694717  0.74049668    -0.27000
C1214       C  0.62384977  0.83561606  0.72777880    -0.15000
C1215       C  0.66127588  0.87598628  0.74149120     0.35600
C1216       C  0.66003840  0.87431865  0.76714715    -0.26400
C1217       C  0.62213288  0.83326791  0.77989252    -0.15700
C1218       C  0.58213247  0.79537539  0.76618223     0.36700
N1219       N  0.54065901  0.75416128  0.77803399    -0.89900
H1220       H  0.55349811  0.76616099  0.73054002     0.17800
H1221       H  0.69051994  0.90469074  0.77705230     0.17800
N1222       N  0.70178508  0.91822758  0.72965633    -0.88900
H1223       H  0.53866645  0.72113841  0.77190933     0.35100
H1224       H  0.50788779  0.75365259  0.77256865     0.40200
H1225       H  0.73539148  0.92115944  0.73564470     0.39900
H1226       H  0.70132831  0.95035876  0.73525771     0.34800
C1227       C  0.37783780  0.53558831  0.63551253    -0.27000
C1228       C  0.37571502  0.49190988  0.62668811    -0.15000
C1229       C  0.41985877  0.49438122  0.61759922     0.35600
C1230       C  0.46414967  0.54085629  0.61617209    -0.26400
C1231       C  0.46600715  0.58459147  0.62466042    -0.15700
C1232       C  0.42242025  0.58185842  0.63464313     0.36700
N1233       N  0.42318432  0.62616984  0.64336837    -0.89900
H1234       H  0.34415837  0.53397861  0.64245124     0.17800
H1235       H  0.49779422  0.54275651  0.60897155     0.17800
N1236       N  0.41990974  0.44968466  0.61031676    -0.88900
H1237       H  0.38839574  0.61748877  0.65062325     0.35100
H1238       H  0.42937248  0.64947866  0.62832194     0.40200
H1239       H  0.41320225  0.42778028  0.62598462     0.39900
H1240       H  0.45518110  0.45811285  0.60384687     0.34800
C1241       C  0.88483246  0.02028679  0.64298875    -0.27000
C1242       C  0.86856230  0.99336876  0.62094888    -0.15000
C1243       C  0.89707964  0.01471577  0.59947631     0.35600
C1244       C  0.93962994  0.06211687  0.60046903    -0.26400
C1245       C  0.95526460  0.08935042  0.62238899    -0.15700
C1246       C  0.92759837  0.06753125  0.64400417     0.36700
N1247       N  0.94263410  0.09128294  0.66742259    -0.89900
H1248       H  0.86431781  0.00438988  0.65978622     0.17800
H1249       H  0.96044819  0.07798019  0.58374112     0.17800
N1250       N  0.88339401  0.99028749  0.57620055    -0.88900
H1251       H  0.94047416  0.12396942  0.66724319     0.35100
H1252       H  0.97951097  0.09999147  0.67084980     0.40200
H1253       H  0.84721017  0.98259623  0.57188401     0.39900
H1254       H  0.88458755  0.95710310  0.57714594     0.34800
C1255       C  0.39085869  0.78688334  0.64732333    -0.27000
C1256       C  0.37265881  0.79498329  0.62517080    -0.15000
C1257       C  0.39981453  0.80130571  0.60343559     0.35600
C1258       C  0.44476699  0.80053491  0.60438801    -0.26400
C1259       C  0.46335867  0.79278794  0.62644631    -0.15700
C1260       C  0.43597095  0.78580677  0.64824897     0.36700
N1261       N  0.45401366  0.77815624  0.67120674    -0.89900
H1262       H  0.37016795  0.78206329  0.66406238     0.17800
H1263       H  0.46492589  0.80503611  0.58750102     0.17800
N1264       N  0.38115442  0.80727478  0.58029397    -0.88900
H1265       H  0.42896453  0.77285346  0.68531127     0.35100
H1266       H  0.48738569  0.81095405  0.67535336     0.40200
H1267       H  0.34812660  0.77384705  0.57652919     0.39900
H1268       H  0.40610796  0.81238951  0.56617542     0.34800
C1269       C  0.96696624  0.84023795  0.61521529    -0.27000
C1270       C  0.96886246  0.79807775  0.62337940    -0.15000
C1271       C  0.92371358  0.75418264  0.62964915     0.35600
C1272       C  0.87836292  0.75347516  0.62750302    -0.26400
C1273       C  0.87643796  0.79574637  0.61968081    -0.15700
C1274       C  0.92150754  0.83976993  0.61349413     0.36700
N1275       N  0.92275475  0.88507052  0.60638788    -0.89900
H1276       H  0.00125438  0.87425557  0.61056857     0.17800
H1277       H  0.84416595  0.71941978  0.63222699     0.17800
N1278       N  0.92226022  0.70936206  0.63781429    -0.88900
H1279       H  0.90550423  0.89494645  0.61999742     0.35100
H1280       H  0.90316135  0.87900120  0.58997120     0.40200
H1281       H  0.94064624  0.71619204  0.65463912     0.39900
H1282       H  0.94029254  0.69886549  0.62492656     0.34800
C1283       C  0.70316450  0.67780318  0.51535982    -0.27000
C1284       C  0.73534967  0.72452180  0.52610388    -0.15000
C1285       C  0.78265013  0.75527254  0.51505670     0.35600
C1286       C  0.79628067  0.73902550  0.49394107    -0.26400
C1287       C  0.76416037  0.69230238  0.48323126    -0.15700
C1288       C  0.71696664  0.66138768  0.49434688     0.36700
N1289       N  0.68259616  0.61309668  0.48455603    -0.89900
H1290       H  0.66679571  0.65326644  0.52335520     0.17800
H1291       H  0.83272129  0.76347421  0.48599350     0.17800
N1292       N  0.81737681  0.80323032  0.52504544    -0.88900
H1293       H  0.64904057  0.61222826  0.48041818     0.35100
H1294       H  0.67523596  0.58639113  0.49811667     0.40200
H1295       H  0.82525853  0.83025567  0.51159108     0.39900
H1296       H  0.85062293  0.80346997  0.52920320     0.34800
loop_ 
_geom_bond_atom_site_label_1 
_geom_bond_atom_site_label_2 
_geom_bond_distance 
_geom_bond_site_symmetry_2 
_ccdc_geom_bond_type 
Zr1           O2   2.442       .  S
Zr1           O3   2.431       .  S
Zr1           O4   2.454       .  S
Zr1           O7   2.424       .  S
Zr1           O9   2.379       .  S
Zr1          O10   2.386       .  S
Zr1          O11   2.403       .  S
Zr1          O12   2.409       .  S
O2           H58   0.991       .  S
O2           H66   0.990       .  S
O3           C23   1.282       .  A
O4           C25   1.288       .  A
O5          Zr15   2.425       .  S
O5           C24   1.284       .  A
O6          Zr14   2.423       .  S
O6           C25   1.281       .  A
O7           C24   1.283       .  A
O8          Zr16   2.407       .  S
O8           C23   1.280       .  A
O9          Zr14   2.390       .  S
O9          Zr16   2.383       .  S
O10         Zr15   2.395       .  S
O10         Zr16   2.372       .  S
O10          H45   0.966       .  S
O11         Zr14   2.399       .  S
O11         Zr31   2.380       .  S
O11          H48   0.965       .  S
O12         Zr15   2.401       .  S
O12         Zr31   2.397       .  S
Zr13         O38   2.440       .  S
Zr13         O32   2.413       .  S
Zr13         O40   2.429       .  S
Zr13         O28   2.429       .  S
Zr13         O19   2.398       .  S
Zr13         O20   2.398       .  S
Zr13         O21   2.377       .  S
Zr13         O22   2.382       .  S
Zr14         O33   2.437       .  S
Zr14         O26   2.436       .  S
Zr14         O27   2.415       .  S
Zr14         O20   2.394       .  S
Zr14         O21   2.386       .  S
Zr15         O17   2.436       .  S
Zr15         O39   2.435       .  S
Zr15         O41   2.450       .  S
Zr15         O19   2.393       .  S
Zr15         O22   2.381       .  S
Zr16         O42   2.437       .  S
Zr16         O43   2.436       .  S
Zr16         O18   2.437       .  S
Zr16         O19   2.397       .  S
Zr16         O20   2.384       .  S
O17          H54   0.990       .  S
O18          H49   0.991       .  S
O18          H63   0.990       .  S
O20          H46   0.966       .  S
O21         Zr31   2.373       .  S
O22         Zr31   2.368       .  S
O22          H47   0.966       .  S
C23        C1259   1.484       .  S
C24        C1231   1.479       .  S
C25        C1214   1.496       .  S
O26          H62   0.990       .  S
O27          C29   1.283       .  A
O28          C29   1.284       .  A
C29        C1242   1.483       .  S
O30         Zr31   2.438       .  S
O30          H59   0.991       .  S
Zr31         O34   2.438       .  S
Zr31         O35   2.437       .  S
Zr31         O36   2.417       .  S
O32          C37   1.280       .  A
O33          H50   0.990       .  S
O33          H65   0.990       .  S
O34          H51   0.990       .  S
O35          H55   0.990       .  S
O35          H64   0.990       .  S
O36          C37   1.283       .  A
C37        C1273   1.474       .  S
O38          H57   0.990       .  S
O38          H61   0.990       .  S
O39          H53   0.990       .  S
O39          H60   0.990       .  S
O40          C44   1.284       .  A
O41          C44   1.289       .  A
O42          H52   0.990       .  S
O43          H56   0.990       .  S
C44        C1284   1.500       .  S
Zr67         O68   2.433       .  S
Zr67         O69   2.423       .  S
Zr67         O70   2.455       .  S
Zr67         O73   2.424       .  S
Zr67         O75   2.380       .  S
Zr67         O76   2.389       .  S
Zr67         O77   2.407       .  S
Zr67         O78   2.405       .  S
O68         H124   0.990       .  S
O68         H132   0.989       .  S
O69          C89   1.280       .  A
O70          C91   1.287       .  A
O71         Zr81   2.421       .  S
O71          C90   1.283       .  A
O72         Zr80   2.423       .  S
O72          C91   1.283       .  A
O73          C90   1.282       .  A
O74         Zr82   2.417       .  S
O74          C89   1.282       .  A
O75         Zr80   2.393       .  S
O75         Zr82   2.382       .  S
O76         Zr81   2.392       .  S
O76         Zr82   2.373       .  S
O76         H111   0.967       .  S
O77         Zr80   2.402       .  S
O77         Zr97   2.384       .  S
O77         H114   0.965       .  S
O78         Zr81   2.391       .  S
O78         Zr97   2.390       .  S
Zr79        O104   2.442       .  S
Zr79         O98   2.433       .  S
Zr79        O106   2.446       .  S
Zr79         O94   2.442       .  S
Zr79         O85   2.408       .  S
Zr79         O86   2.406       .  S
Zr79         O87   2.382       .  S
Zr79         O88   2.383       .  S
Zr80         O99   2.439       .  S
Zr80         O92   2.435       .  S
Zr80         O93   2.419       .  S
Zr80         O86   2.399       .  S
Zr80         O87   2.387       .  S
Zr81         O83   2.436       .  S
Zr81        O105   2.435       .  S
Zr81        O107   2.430       .  S
Zr81         O85   2.394       .  S
Zr81         O88   2.384       .  S
Zr82        O108   2.435       .  S
Zr82        O109   2.437       .  S
Zr82         O84   2.439       .  S
Zr82         O85   2.405       .  S
Zr82         O86   2.388       .  S
O83         H120   0.990       .  S
O84         H115   0.990       .  S
O84         H129   0.990       .  S
O86         H112   0.966       .  S
O87         Zr97   2.378       .  S
O88         Zr97   2.365       .  S
O88         H113   0.965       .  S
C89        C1172   1.493       .  S
C90        C1200   1.478       .  S
C91        C1144   1.500       .  S
O92         H128   0.990   1_655  S
O93          C95   1.283       .  A
O94          C95   1.287       .  A
C95        C1186   1.480   1_655  S
O96         Zr97   2.440       .  S
O96         H125   0.990       .  S
Zr97        O100   2.438       .  S
Zr97        O101   2.440       .  S
Zr97        O102   2.414       .  S
O98         C103   1.285       .  A
O99         H116   0.990       .  S
O99         H131   0.990       .  S
O100        H117   0.990       .  S
O101        H121   0.989       .  S
O101        H130   0.990       .  S
O102        C103   1.280       .  A
C103       C1158   1.488       .  S
O104        H123   0.990       .  S
O104        H127   0.990       .  S
O105        H119   0.990       .  S
O105        H126   0.990       .  S
O106        C110   1.289       .  A
O107        C110   1.284       .  A
O108        H118   0.989       .  S
O109        H122   0.990       .  S
C110       C1287   1.499       .  S
Zr133       O134   2.439       .  S
Zr133       O135   2.435       .  S
Zr133       O136   2.454       .  S
Zr133       O139   2.414       .  S
Zr133       O141   2.374       .  S
Zr133       O142   2.384       .  S
Zr133       O143   2.406       .  S
Zr133       O144   2.411       .  S
O134        H190   0.990       .  S
O134        H198   0.989       .  S
O135        C155   1.284       .  A
O136        C157   1.286       .  A
O137       Zr147   2.433       .  S
O137        C156   1.285       .  A
O138       Zr146   2.429       .  S
O138        C157   1.284       .  A
O139        C156   1.281       .  A
O140       Zr148   2.402       .  S
O140        C155   1.276       .  A
O141       Zr146   2.391       .  S
O141       Zr148   2.383       .  S
O142       Zr147   2.396       .  S
O142       Zr148   2.376       .  S
O142        H177   0.966       .  S
O143       Zr146   2.397       .  S
O143       Zr163   2.391       .  S
O143        H180   0.965       .  S
O144       Zr147   2.393       .  S
O144       Zr163   2.396       .  S
Zr145       O170   2.442       .  S
Zr145       O164   2.416   1_545  S
Zr145       O172   2.446       .  S
Zr145       O160   2.439       .  S
Zr145       O151   2.398       .  S
Zr145       O152   2.402       .  S
Zr145       O153   2.382       .  S
Zr145       O154   2.382       .  S
Zr146       O165   2.438       .  S
Zr146       O158   2.435       .  S
Zr146       O159   2.415       .  S
Zr146       O152   2.400       .  S
Zr146       O153   2.386       .  S
Zr147       O149   2.434       .  S
Zr147       O171   2.435       .  S
Zr147       O173   2.442       .  S
Zr147       O151   2.393       .  S
Zr147       O154   2.383       .  S
Zr148       O174   2.435       .  S
Zr148       O175   2.433       .  S
Zr148       O150   2.438       .  S
Zr148       O151   2.395       .  S
Zr148       O152   2.384       .  S
O149        H186   0.990       .  S
O150        H181   0.990       .  S
O150        H195   0.990       .  S
O152        H178   0.966       .  S
O153       Zr163   2.372       .  S
O154       Zr163   2.366       .  S
O154        H179   0.966       .  S
C155       C1203   1.481       .  S
C156       C1133   1.481       .  S
C157       C1091   1.502       .  S
O158        H194   0.990       .  S
O159        C161   1.282       .  A
O160        C161   1.287       .  A
C161       C1119   1.486       .  S
O162       Zr163   2.439       .  S
O162        H191   0.990   1_545  S
Zr163       O166   2.438       .  S
Zr163       O167   2.438   1_545  S
Zr163       O168   2.434   1_545  S
O164        C169   1.282       .  A
O165        H182   0.990       .  S
O165        H197   0.990       .  S
O166        H183   0.990       .  S
O167        H187   0.990       .  S
O167        H196   0.990       .  S
O168        C169   1.286       .  A
C169       C1189   1.483       .  S
O170        H189   0.991       .  S
O170        H193   0.990       .  S
O171        H185   0.990       .  S
O171        H192   0.990       .  S
O172        C176   1.289       .  A
O173        C176   1.287       .  A
O174        H184   0.990       .  S
O175        H188   0.990       .  S
C176       C1102   1.501   1_545  S
Zr199       O200   2.435       .  S
Zr199       O201   2.442       .  S
Zr199       O202   2.461       .  S
Zr199       O205   2.420       .  S
Zr199       O207   2.380       .  S
Zr199       O208   2.389       .  S
Zr199       O209   2.407       .  S
Zr199       O210   2.413       .  S
O200        H256   0.990       .  S
O200        H264   0.990       .  S
O201        C221   1.286       .  A
O202        C223   1.289       .  A
O203       Zr213   2.431       .  S
O203        C222   1.286       .  A
O204       Zr212   2.445       .  S
O204        C223   1.288       .  A
O205        C222   1.282       .  A
O206       Zr214   2.403       .  S
O206        C221   1.279       .  A
O207       Zr212   2.386       .  S
O207       Zr214   2.388       .  S
O208       Zr213   2.387       .  S
O208       Zr214   2.371       .  S
O208        H243   0.965       .  S
O209       Zr212   2.396       .  S
O209       Zr229   2.390       .  S
O209        H246   0.954       .  S
O210       Zr213   2.394       .  S
O210       Zr229   2.398       .  S
Zr211       O236   2.443       .  S
Zr211       O230   2.410       .  S
Zr211       O238   2.442       .  S
Zr211       O226   2.426       .  S
Zr211       O217   2.397       .  S
Zr211       O218   2.402       .  S
Zr211       O219   2.381       .  S
Zr211       O220   2.379       .  S
Zr212       O231   2.436       .  S
Zr212       O224   2.435       .  S
Zr212       O225   2.418       .  S
Zr212       O218   2.397       .  S
Zr212       O219   2.390       .  S
Zr213       O215   2.435       .  S
Zr213       O237   2.438       .  S
Zr213       O239   2.447       .  S
Zr213       O217   2.390       .  S
Zr213       O220   2.386       .  S
Zr214       O240   2.440       .  S
Zr214       O241   2.437       .  S
Zr214       O216   2.437       .  S
Zr214       O217   2.398       .  S
Zr214       O218   2.381       .  S
O215        H252   0.990       .  S
O216        H247   0.990       .  S
O216        H261   0.990       .  S
O218        H244   0.965       .  S
O219       Zr229   2.371       .  S
O220       Zr229   2.367       .  S
O220        H245   0.967       .  S
C221       C1063   1.481       .  S
C222       C1256   1.483       .  S
C223       C1046   1.509       .  S
O224        H260   0.990   1_455  S
O225        C227   1.282       .  A
O226        C227   1.285       .  A
C227       C1270   1.475   1_455  S
O228       Zr229   2.438       .  S
O228        H257   0.990       .  S
Zr229       O232   2.436       .  S
Zr229       O233   2.439       .  S
Zr229       O234   2.429       .  S
O230        C235   1.281       .  A
O231        H248   0.990       .  S
O231        H263   0.990       .  S
O232        H249   0.989       .  S
O233        H253   0.990       .  S
O233        H262   0.990       .  S
O234        C235   1.283       .  A
C235       C1074   1.486   1_565  S
O236        H255   0.990       .  S
O236        H259   0.990       .  S
O237        H251   0.990       .  S
O237        H258   0.990       .  S
O238        C242   1.286       .  A
O239        C242   1.289       .  A
O240        H250   0.990       .  S
O241        H254   0.990       .  S
C242       C1105   1.503       .  S
Zr265       O266   2.440       .  S
Zr265       O267   2.433       .  S
Zr265       O268   2.445       .  S
Zr265       O271   2.428       .  S
Zr265       O273   2.380       .  S
Zr265       O274   2.382       .  S
Zr265       O275   2.402       .  S
Zr265       O276   2.403       .  S
O266        H322   0.990       .  S
O266        H330   0.990       .  S
O267        C287   1.284       .  A
O268        C289   1.285       .  A
O269       Zr279   2.417       .  S
O269        C288   1.282       .  A
O270       Zr278   2.439       .  S
O270        C289   1.287       .  A
O271        C288   1.284       .  A
O272       Zr280   2.411       .  S
O272        C287   1.279       .  A
O273       Zr278   2.390       .  S
O273       Zr280   2.381       .  S
O274       Zr279   2.391       .  S
O274       Zr280   2.376       .  S
O274        H309   0.966       .  S
O275       Zr278   2.399       .  S
O275       Zr295   2.383       .  S
O275        H312   0.965       .  S
O276       Zr279   2.394       .  S
O276       Zr295   2.396       .  S
Zr277       O302   2.438       .  S
Zr277       O296   2.416       .  S
Zr277       O304   2.441       .  S
Zr277       O292   2.431       .  S
Zr277       O283   2.396       .  S
Zr277       O284   2.401       .  S
Zr277       O285   2.378       .  S
Zr277       O286   2.378       .  S
Zr278       O297   2.437       .  S
Zr278       O290   2.435       .  S
Zr278       O291   2.431       .  S
Zr278       O284   2.394       .  S
Zr278       O285   2.386       .  S
Zr279       O281   2.434       .  S
Zr279       O303   2.438       .  S
Zr279       O305   2.425       .  S
Zr279       O283   2.387       .  S
Zr279       O286   2.383       .  S
Zr280       O306   2.436       .  S
Zr280       O307   2.437       .  S
Zr280       O282   2.436       .  S
Zr280       O283   2.398       .  S
Zr280       O284   2.386       .  S
O281        H318   0.990       .  S
O282        H313   0.990       .  S
O282        H327   0.990       .  S
O284        H310   0.966       .  S
O285       Zr295   2.370       .  S
O286       Zr295   2.372       .  S
O286        H311   0.966       .  S
C287       C1228   1.482       .  S
C288       C1060   1.483       .  S
C289       C1021   1.499       .  S
O290        H326   0.990       .  S
O291        C293   1.287       .  A
O292        C293   1.286       .  A
C293       C1077   1.491       .  S
O294       Zr295   2.440       .  S
O294        H323   0.990       .  S
Zr295       O298   2.437       .  S
Zr295       O299   2.439   1_455  S
Zr295       O300   2.422       .  S
O296        C301   1.283       .  A
O297        H314   0.990       .  S
O297        H329   0.990       .  S
O298        H315   0.989       .  S
O299        H319   0.990       .  S
O299        H328   0.990   1_655  S
O300        C301   1.282       .  A
C301       C1245   1.479   1_455  S
O302        H321   0.990       .  S
O302        H325   0.990       .  S
O303        H317   0.990       .  S
O303        H324   0.990       .  S
O304        C308   1.287       .  A
O305        C308   1.283       .  A
O306        H316   0.990       .  S
O307        H320   0.990       .  S
C308       C1032   1.497       .  S
Zr331       O332   2.442       .  S
Zr331       O333   2.441       .  S
Zr331       O334   2.444       .  S
Zr331       O337   2.417       .  S
Zr331       O339   2.385       .  S
Zr331       O340   2.387       .  S
Zr331       O341   2.404       .  S
Zr331       O342   2.408       .  S
O332        H388   0.990       .  S
O332        H396   0.991       .  S
O333        C353   1.285       .  A
O334        C355   1.285       .  A
O335       Zr345   2.433       .  S
O335        C354   1.285       .  A
O336       Zr344   2.424       .  S
O336        C355   1.282       .  A
O337        C354   1.282       .  A
O338       Zr346   2.398       .  S
O338        C353   1.279       .  A
O339       Zr344   2.396       .  S
O339       Zr346   2.389       .  S
O340       Zr345   2.385       .  S
O340       Zr346   2.378       .  S
O340        H375   0.966       .  S
O341       Zr344   2.398       .  S
O341       Zr361   2.388       .  S
O341        H378   0.965       .  S
O342       Zr345   2.393       .  S
O342       Zr361   2.396       .  S
Zr343       O368   2.439       .  S
Zr343       O362   2.403       .  S
Zr343       O370   2.422       .  S
Zr343       O358   2.421       .  S
Zr343       O349   2.391       .  S
Zr343       O350   2.394       .  S
Zr343       O351   2.375       .  S
Zr343       O352   2.382       .  S
Zr344       O363   2.437       .  S
Zr344       O356   2.436   1_545  S
Zr344       O357   2.429   1_545  S
Zr344       O350   2.392       .  S
Zr344       O351   2.384       .  S
Zr345       O347   2.435       .  S
Zr345       O369   2.435       .  S
Zr345       O371   2.445       .  S
Zr345       O349   2.386       .  S
Zr345       O352   2.385       .  S
Zr346       O372   2.437       .  S
Zr346       O373   2.437       .  S
Zr346       O348   2.435       .  S
Zr346       O349   2.389       .  S
Zr346       O350   2.381       .  S
O347        H384   0.990       .  S
O348        H379   0.990       .  S
O348        H393   0.990       .  S
O350        H376   0.966       .  S
O351       Zr361   2.371       .  S
O352       Zr361   2.370       .  S
O352        H377   0.966       .  S
C353       C1130   1.481       .  S
C354       C1175   1.489       .  S
C355       C1004   1.495       .  S
O356        H392   0.990       .  S
O357        C359   1.286       .  A
O358        C359   1.283   1_545  A
C359       C1161   1.481       .  S
O360       Zr361   2.438       .  S
O360        H389   0.990       .  S
Zr361       O364   2.436       .  S
Zr361       O365   2.440   1_655  S
Zr361       O366   2.428       .  S
O362        C367   1.279   1_655  A
O363        H380   0.990       .  S
O363        H395   0.990       .  S
O364        H381   0.990       .  S
O365        H385   0.990       .  S
O365        H394   0.990       .  S
O366        C367   1.284   1_655  A
C367       C1116   1.477       .  S
O368        H387   0.990       .  S
O368        H391   0.990       .  S
O369        H383   0.990       .  S
O369        H390   0.990       .  S
O370        C374   1.283       .  A
O371        C374   1.289       .  A
O372        H382   0.990       .  S
O373        H386   0.990       .  S
C374       C1035   1.494       .  S
Zr397       O398   2.438       .  S
Zr397       O399   2.413       .  S
Zr397       O400   2.446       .  S
Zr397       O403   2.430       .  S
Zr397       O405   2.380       .  S
Zr397       O406   2.383       .  S
Zr397       O407   2.393       .  S
Zr397       O408   2.400       .  S
O398        H454   0.990       .  S
O398        H462   0.990       .  S
O399        C419   1.282       .  A
O400        C421   1.288       .  A
O401       Zr411   2.424       .  S
O401        C420   1.284       .  A
O402       Zr410   2.422       .  S
O402        C421   1.282       .  A
O403        C420   1.286       .  A
O404       Zr412   2.425       .  S
O404        C419   1.283       .  A
O405       Zr410   2.387       .  S
O405       Zr412   2.373       .  S
O406       Zr411   2.390       .  S
O406       Zr412   2.375       .  S
O406        H441   0.966       .  S
O407       Zr410   2.389       .  S
O407       Zr427   2.389       .  S
O407        H444   0.966       .  S
O408       Zr411   2.395       .  S
O408       Zr427   2.392       .  S
Zr409       O434   2.440       .  S
Zr409       O428   2.431       .  S
Zr409       O436   2.434       .  S
Zr409       O424   2.407       .  S
Zr409       O415   2.389       .  S
Zr409       O416   2.410       .  S
Zr409       O417   2.382       .  S
Zr409       O418   2.380       .  S
Zr410       O429   2.436       .  S
Zr410       O422   2.432       .  S
Zr410       O423   2.425       .  S
Zr410       O416   2.396       .  S
Zr410       O417   2.384       .  S
Zr411       O413   2.437       .  S
Zr411       O435   2.439       .  S
Zr411       O437   2.438       .  S
Zr411       O415   2.378       .  S
Zr411       O418   2.385       .  S
Zr412       O438   2.436       .  S
Zr412       O439   2.436       .  S
Zr412       O414   2.435       .  S
Zr412       O415   2.387       .  S
Zr412       O416   2.396       .  S
O413        H450   0.990       .  S
O414        H445   0.990       .  S
O414        H459   0.990       .  S
O416        H442   0.966       .  S
O417       Zr427   2.372       .  S
O418       Zr427   2.389       .  S
O418        H443   0.966       .  S
C419        C979   1.478       .  S
C420        C951   1.484       .  S
C421        C990   1.487       .  S
O422        H458   0.989       .  S
O423        C425   1.284       .  A
O424        C425   1.278       .  A
C425        C934   1.474       .  S
O426       Zr427   2.436       .  S
O426        H455   0.990       .  S
Zr427       O430   2.437       .  S
Zr427       O431   2.436       .  S
Zr427       O432   2.412       .  S
O428        C433   1.284       .  A
O429        H446   0.990       .  S
O429        H461   0.990       .  S
O430        H447   0.990       .  S
O431        H451   0.990       .  S
O431        H460   0.990       .  S
O432        C433   1.281       .  A
C433        C962   1.479       .  S
O434        H453   0.990       .  S
O434        H457   0.990       .  S
O435        H449   0.990       .  S
O435        H456   0.990       .  S
O436        C440   1.284       .  A
O437        C440   1.287       .  A
O438        H448   0.990       .  S
O439        H452   0.990       .  S
C440       C1217   1.498       .  S
Zr463       O464   2.441       .  S
Zr463       O465   2.421       .  S
Zr463       O466   2.417       .  S
Zr463       O469   2.425       .  S
Zr463       O471   2.377       .  S
Zr463       O472   2.380       .  S
Zr463       O473   2.402       .  S
Zr463       O474   2.393       .  S
O464        H520   0.990       .  S
O464        H528   0.991       .  S
O465        C485   1.282       .  A
O466        C487   1.280       .  A
O467       Zr477   2.421       .  S
O467        C486   1.283       .  A
O468       Zr476   2.445       .  S
O468        C487   1.288       .  A
O469        C486   1.285       .  A
O470       Zr478   2.425       .  S
O470        C485   1.284       .  A
O471       Zr476   2.387       .  S
O471       Zr478   2.372       .  S
O472       Zr477   2.387       .  S
O472       Zr478   2.372       .  S
O472        H507   0.966       .  S
O473       Zr476   2.399       .  S
O473       Zr493   2.395       .  S
O473        H510   0.966       .  S
O474       Zr477   2.390       .  S
O474       Zr493   2.388       .  S
Zr475       O500   2.448       .  S
Zr475       O494   2.434       .  S
Zr475       O502   2.432       .  S
Zr475       O490   2.426       .  S
Zr475       O481   2.395       .  S
Zr475       O482   2.408       .  S
Zr475       O483   2.382       .  S
Zr475       O484   2.388       .  S
Zr476       O495   2.436       .  S
Zr476       O488   2.434       .  S
Zr476       O489   2.443       .  S
Zr476       O482   2.396       .  S
Zr476       O483   2.387       .  S
Zr477       O479   2.434       .  S
Zr477       O501   2.439       .  S
Zr477       O503   2.433       .  S
Zr477       O481   2.383       .  S
Zr477       O484   2.389       .  S
Zr478       O504   2.436       .  S
Zr478       O505   2.435       .  S
Zr478       O480   2.436       .  S
Zr478       O481   2.388       .  S
Zr478       O482   2.397       .  S
O479        H516   0.990       .  S
O480        H511   0.990       .  S
O480        H525   0.990       .  S
O482        H508   0.966       .  S
O483       Zr493   2.372       .  S
O484       Zr493   2.385       .  S
O484        H509   0.966       .  S
C485        C906   1.479       .  S
C486        C881   1.482   1_655  S
C487        C993   1.486       .  S
O488        H524   0.990       .  S
O489        C491   1.288       .  A
O490        C491   1.284       .  A
C491        C892   1.487       .  S
O492       Zr493   2.437       .  S
O492        H521   0.990       .  S
Zr493       O496   2.435       .  S
Zr493       O497   2.438       .  S
Zr493       O498   2.416       .  S
O494        C499   1.284       .  A
O495        H512   0.990       .  S
O495        H527   0.990       .  S
O496        H513   0.990       .  S
O497        H517   0.990       .  S
O497        H526   0.989       .  S
O498        C499   1.282       .  A
C499        C920   1.483       .  S
O500        H519   0.990       .  S
O500        H523   0.990       .  S
O501        H515   0.990       .  S
O501        H522   0.990       .  S
O502        C506   1.285       .  A
O503        C506   1.283       .  A
O504        H514   0.991       .  S
O505        H518   0.990       .  S
C506       C1147   1.498       .  S
Zr529       O530   2.438       .  S
Zr529       O531   2.419       .  S
Zr529       O532   2.446       .  S
Zr529       O535   2.434       .  S
Zr529       O537   2.372       .  S
Zr529       O538   2.387       .  S
Zr529       O539   2.403       .  S
Zr529       O540   2.399       .  S
O530        H586   0.990       .  S
O530        H594   0.990       .  S
O531        C551   1.282   1_545  A
O532        C553   1.287       .  A
O533       Zr543   2.420       .  S
O533        C552   1.282       .  A
O534       Zr542   2.447       .  S
O534        C553   1.287       .  A
O535        C552   1.287       .  A
O536       Zr544   2.423   1_565  S
O536        C551   1.283       .  A
O537       Zr542   2.381       .  S
O537       Zr544   2.369       .  S
O538       Zr543   2.391       .  S
O538       Zr544   2.377       .  S
O538        H573   0.966       .  S
O539       Zr542   2.399       .  S
O539       Zr559   2.410       .  S
O539        H576   0.966       .  S
O540       Zr543   2.393       .  S
O540       Zr559   2.391       .  S
Zr541       O566   2.446       .  S
Zr541       O560   2.433       .  S
Zr541       O568   2.434       .  S
Zr541       O556   2.410       .  S
Zr541       O547   2.388       .  S
Zr541       O548   2.407       .  S
Zr541       O549   2.381       .  S
Zr541       O550   2.377       .  S
Zr542       O561   2.438       .  S
Zr542       O554   2.435       .  S
Zr542       O555   2.431       .  S
Zr542       O548   2.396       .  S
Zr542       O549   2.391       .  S
Zr543       O545   2.435       .  S
Zr543       O567   2.437       .  S
Zr543       O569   2.442       .  S
Zr543       O547   2.382       .  S
Zr543       O550   2.381       .  S
Zr544       O570   2.435       .  S
Zr544       O571   2.436       .  S
Zr544       O546   2.437   1_545  S
Zr544       O547   2.387       .  S
Zr544       O548   2.396       .  S
O545        H582   0.990       .  S
O546        H577   0.990       .  S
O546        H591   0.990       .  S
O548        H574   0.966       .  S
O549       Zr559   2.369       .  S
O550       Zr559   2.384       .  S
O550        H575   0.966       .  S
C551        C878   1.484       .  S
C552        C850   1.483       .  S
C553        C836   1.505       .  S
O554        H590   0.990       .  S
O555        C557   1.285       .  A
O556        C557   1.281       .  A
C557        C864   1.474       .  S
O558       Zr559   2.439       .  S
O558        H587   0.991       .  S
Zr559       O562   2.437       .  S
Zr559       O563   2.439       .  S
Zr559       O564   2.426       .  S
O560        C565   1.284       .  A
O561        H578   0.990       .  S
O561        H593   0.990       .  S
O562        H579   0.990       .  S
O563        H583   0.990       .  S
O563        H592   0.990       .  S
O564        C565   1.284       .  A
C565        C895   1.486       .  S
O566        H585   0.990       .  S
O566        H589   0.990       .  S
O567        H581   0.990       .  S
O567        H588   0.990       .  S
O568        C572   1.286       .  A
O569        C572   1.285       .  A
O570        H580   0.990       .  S
O571        H584   0.990       .  S
C572       C1088   1.501       .  S
Zr595       O596   2.440       .  S
Zr595       O597   2.420       .  S
Zr595       O598   2.442       .  S
Zr595       O601   2.424       .  S
Zr595       O603   2.380       .  S
Zr595       O604   2.385       .  S
Zr595       O605   2.400       .  S
Zr595       O606   2.402       .  S
O596        H652   0.990       .  S
O596        H660   0.990       .  S
O597        C617   1.281       .  A
O598        C619   1.287       .  A
O599       Zr609   2.407       .  S
O599        C618   1.281       .  A
O600       Zr608   2.444       .  S
O600        C619   1.287       .  A
O601        C618   1.283       .  A
O602       Zr610   2.421       .  S
O602        C617   1.283       .  A
O603       Zr608   2.388       .  S
O603       Zr610   2.373       .  S
O604       Zr609   2.385       .  S
O604       Zr610   2.371       .  S
O604        H639   0.966       .  S
O605       Zr608   2.394       .  S
O605       Zr625   2.401       .  S
O605        H642   0.966       .  S
O606       Zr609   2.395       .  S
O606       Zr625   2.388       .  S
Zr607       O632   2.445       .  S
Zr607       O626   2.428       .  S
Zr607       O634   2.449       .  S
Zr607       O622   2.418       .  S
Zr607       O613   2.396       .  S
Zr607       O614   2.412       .  S
Zr607       O615   2.383       .  S
Zr607       O616   2.378       .  S
Zr608       O627   2.436       .  S
Zr608       O620   2.438       .  S
Zr608       O621   2.437       .  S
Zr608       O614   2.401       .  S
Zr608       O615   2.385       .  S
Zr609       O611   2.434       .  S
Zr609       O633   2.440       .  S
Zr609       O635   2.424       .  S
Zr609       O613   2.383       .  S
Zr609       O616   2.385       .  S
Zr610       O636   2.435       .  S
Zr610       O637   2.434       .  S
Zr610       O612   2.435       .  S
Zr610       O613   2.392       .  S
Zr610       O614   2.397       .  S
O611        H648   0.990   1_455  S
O612        H643   0.990       .  S
O612        H657   0.989       .  S
O614        H640   0.966       .  S
O615       Zr625   2.370       .  S
O616       Zr625   2.383       .  S
O616        H641   0.966       .  S
C617        C825   1.491   1_565  S
C618        C976   1.477   1_455  S
C619        C839   1.503       .  S
O620        H656   0.990       .  S
O621        C623   1.287       .  A
O622        C623   1.281       .  A
C623        C965   1.481       .  S
O624       Zr625   2.434       .  S
O624        H653   0.990       .  S
Zr625       O628   2.435       .  S
Zr625       O629   2.437       .  S
Zr625       O630   2.414       .  S
O626        C631   1.284       .  A
O627        H644   0.990       .  S
O627        H659   0.990       .  S
O628        H645   0.989       .  S
O629        H649   0.990       .  S
O629        H658   0.990       .  S
O630        C631   1.282       .  A
C631        C808   1.485       .  S
O632        H651   0.990       .  S
O632        H655   0.990       .  S
O633        H647   0.990       .  S
O633        H654   0.990       .  S
O634        C638   1.289       .  A
O635        C638   1.281       .  A
O636        H646   0.990       .  S
O637        H650   0.990       .  S
C638       C1049   1.502       .  S
Zr661       O662   2.437       .  S
Zr661       O663   2.423       .  S
Zr661       O664   2.442       .  S
Zr661       O667   2.427       .  S
Zr661       O669   2.378       .  S
Zr661       O670   2.383       .  S
Zr661       O671   2.405       .  S
Zr661       O672   2.392       .  S
O662        H718   0.990       .  S
O662        H726   0.990       .  S
O663        C683   1.283       .  A
O664        C685   1.286       .  A
O665       Zr675   2.423       .  S
O665        C684   1.284       .  A
O666       Zr674   2.435       .  S
O666        C685   1.287       .  A
O667        C684   1.285       .  A
O668       Zr676   2.425       .  S
O668        C683   1.284       .  A
O669       Zr674   2.385       .  S
O669       Zr676   2.371       .  S
O670       Zr675   2.381       .  S
O670       Zr676   2.375       .  S
O670        H705   0.965       .  S
O671       Zr674   2.392       .  S
O671       Zr691   2.404       .  S
O671        H708   0.966       .  S
O672       Zr675   2.383       .  S
O672       Zr691   2.381       .  S
Zr673       O698   2.448       .  S
Zr673       O692   2.431       .  S
Zr673       O700   2.444       .  S
Zr673       O688   2.421       .  S
Zr673       O679   2.397       .  S
Zr673       O680   2.407       .  S
Zr673       O681   2.380       .  S
Zr673       O682   2.380       .  S
Zr674       O693   2.436       .  S
Zr674       O686   2.436       .  S
Zr674       O687   2.421       .  S
Zr674       O680   2.400       .  S
Zr674       O681   2.382       .  S
Zr675       O677   2.434       .  S
Zr675       O699   2.440       .  S
Zr675       O701   2.415       .  S
Zr675       O679   2.390       .  S
Zr675       O682   2.385       .  S
Zr676       O702   2.435       .  S
Zr676       O703   2.435       .  S
Zr676       O678   2.437   1_455  S
Zr676       O679   2.393       .  S
Zr676       O680   2.398       .  S
O677        H714   0.990       .  S
O678        H709   0.990       .  S
O678        H723   0.990   1_655  S
O680        H706   0.966       .  S
O681       Zr691   2.370       .  S
O682       Zr691   2.380       .  S
O682        H707   0.966       .  S
C683        C948   1.482   1_455  S
C684        C822   1.487       .  S
C685        C794   1.500       .  S
O686        H722   0.990       .  S
O687        C689   1.283       .  A
O688        C689   1.283       .  A
C689        C811   1.481       .  S
O690       Zr691   2.438       .  S
O690        H719   0.990       .  S
Zr691       O694   2.437       .  S
Zr691       O695   2.437       .  S
Zr691       O696   2.410       .  S
O692        C697   1.284       .  A
O693        H710   0.990       .  S
O693        H725   0.990       .  S
O694        H711   0.990       .  S
O695        H715   0.990       .  S
O695        H724   0.990       .  S
O696        C697   1.281       .  A
C697        C937   1.480       .  S
O698        H717   0.990       .  S
O698        H721   0.990       .  S
O699        H713   0.990       .  S
O699        H720   0.990       .  S
O700        C704   1.287       .  A
O701        C704   1.282       .  A
O702        H712   0.989       .  S
O703        H716   0.990       .  S
C704       C1018   1.494       .  S
Zr727       O728   2.438       .  S
Zr727       O729   2.425       .  S
Zr727       O730   2.422       .  S
Zr727       O733   2.415       .  S
Zr727       O735   2.378       .  S
Zr727       O736   2.380       .  S
Zr727       O737   2.399       .  S
Zr727       O738   2.399       .  S
O728        H784   0.990       .  S
O728        H792   0.990       .  S
O729        C749   1.282       .  A
O730        C751   1.283       .  A
O731       Zr741   2.429   1_565  S
O731        C750   1.285       .  A
O732       Zr740   2.451       .  S
O732        C751   1.288       .  A
O733        C750   1.283   1_545  A
O734       Zr742   2.423       .  S
O734        C749   1.283       .  A
O735       Zr740   2.385       .  S
O735       Zr742   2.373       .  S
O736       Zr741   2.389       .  S
O736       Zr742   2.373       .  S
O736        H771   0.966       .  S
O737       Zr740   2.395       .  S
O737       Zr757   2.399       .  S
O737        H774   0.966       .  S
O738       Zr741   2.388       .  S
O738       Zr757   2.390       .  S
Zr739       O764   2.440       .  S
Zr739       O758   2.423       .  S
Zr739       O766   2.436       .  S
Zr739       O754   2.428       .  S
Zr739       O745   2.393       .  S
Zr739       O746   2.411       .  S
Zr739       O747   2.379       .  S
Zr739       O748   2.384       .  S
Zr740       O759   2.436       .  S
Zr740       O752   2.434       .  S
Zr740       O753   2.438       .  S
Zr740       O746   2.406       .  S
Zr740       O747   2.392       .  S
Zr741       O743   2.437   1_545  S
Zr741       O765   2.440       .  S
Zr741       O767   2.430       .  S
Zr741       O745   2.391       .  S
Zr741       O748   2.391       .  S
Zr742       O768   2.435       .  S
Zr742       O769   2.434       .  S
Zr742       O744   2.436   1_655  S
Zr742       O745   2.388       .  S
Zr742       O746   2.401       .  S
O743        H780   0.990       .  S
O744        H775   0.991       .  S
O744        H789   0.990       .  S
O746        H772   0.966       .  S
O747       Zr757   2.372       .  S
O748       Zr757   2.385       .  S
O748        H773   0.966       .  S
C749        C853   1.487   1_655  S
C750        C909   1.478       .  S
C751        C797   1.498       .  S
O752        H788   0.990       .  S
O753        C755   1.285       .  A
O754        C755   1.283       .  A
C755        C923   1.485       .  S
O756       Zr757   2.438       .  S
O756        H785   0.990       .  S
Zr757       O760   2.435       .  S
Zr757       O761   2.442       .  S
Zr757       O762   2.413       .  S
O758        C763   1.281       .  A
O759        H776   0.990       .  S
O759        H791   0.990       .  S
O760        H777   0.990       .  S
O761        H781   0.990       .  S
O761        H790   0.990   1_545  S
O762        C763   1.281       .  A
C763        C867   1.476       .  S
O764        H783   0.990       .  S
O764        H787   0.991       .  S
O765        H779   0.990   1_545  S
O765        H786   0.990       .  S
O766        C770   1.285       .  A
O767        C770   1.285       .  A
O768        H778   0.990       .  S
O769        H782   0.990       .  S
C770       C1007   1.497       .  S
C793        C794   1.408       .  A
C793        C798   1.408   1_556  A
C793        H800   1.083       .  S
C794        C795   1.418       .  A
C795        C796   1.410   1_456  A
C795        N802   1.439       .  S
C796        C797   1.410       .  A
C796        H801   1.083       .  S
C797        C798   1.415   1_655  A
C798        N799   1.438   1_455  S
N799        H803   1.046   1_655  S
N799        H804   1.046   1_655  S
N802        H805   1.046   1_455  S
N802        H806   1.046   1_455  S
C807        C808   1.408       .  A
C807        C812   1.402       .  A
C807        H814   1.083       .  S
C808        C809   1.414       .  A
C809        C810   1.403       .  A
C809        N816   1.438       .  S
C810        C811   1.405       .  A
C810        H815   1.083       .  S
C811        C812   1.412       .  A
C812        N813   1.439       .  S
N813        H817   1.046       .  S
N813        H818   1.046       .  S
N816        H819   1.045       .  S
N816        H820   1.046       .  S
C821        C822   1.405       .  A
C821        C826   1.404       .  A
C821        H828   1.083       .  S
C822        C823   1.415       .  A
C823        C824   1.402       .  A
C823        N830   1.439       .  S
C824        C825   1.407       .  A
C824        H829   1.083       .  S
C825        C826   1.418       .  A
C826        N827   1.438   1_545  S
N827        H831   1.046       .  S
N827        H832   1.046       .  S
N830        H833   1.046       .  S
N830        H834   1.046       .  S
C835        C836   1.409   1_565  A
C835        C840   1.413   1_554  A
C835        H842   1.083   1_565  S
C836        C837   1.419   1_545  A
C837        C838   1.410   1_554  A
C837        N844   1.438       .  S
C838        C839   1.407       .  A
C838        H843   1.083       .  S
C839        C840   1.418       .  A
C840        N841   1.438       .  S
N841        H845   1.045       .  S
N841        H846   1.046       .  S
N844        H847   1.046       .  S
N844        H848   1.046       .  S
C849        C850   1.403       .  A
C849        C854   1.399       .  A
C849        H856   1.083       .  S
C850        C851   1.419       .  A
C851        C852   1.396       .  A
C851        N858   1.434       .  S
C852        C853   1.405       .  A
C852        H857   1.084       .  S
C853        C854   1.419       .  A
C854        N855   1.431       .  S
N855        H859   1.045   1_455  S
N855        H860   1.045   1_455  S
N858        H861   1.046       .  S
N858        H862   1.044       .  S
C863        C864   1.405       .  A
C863        C868   1.396       .  A
C863        H870   1.084       .  S
C864        C865   1.413       .  A
C865        C866   1.395       .  A
C865        N872   1.433       .  S
C866        C867   1.405       .  A
C866        H871   1.084       .  S
C867        C868   1.415       .  A
C868        N869   1.433       .  S
N869        H873   1.045       .  S
N869        H874   1.045       .  S
N872        H875   1.046       .  S
N872        H876   1.044       .  S
C877        C878   1.405       .  A
C877        C882   1.401       .  A
C877        H884   1.084       .  S
C878        C879   1.416       .  A
C879        C880   1.404       .  A
C879        N886   1.438       .  S
C880        C881   1.404       .  A
C880        H885   1.083       .  S
C881        C882   1.414       .  A
C882        N883   1.439       .  S
N883        H887   1.046       .  S
N883        H888   1.046       .  S
N886        H889   1.046       .  S
N886        H890   1.046       .  S
C891        C892   1.406       .  A
C891        C896   1.401       .  A
C891        H898   1.082       .  S
C892        C893   1.410       .  A
C893        C894   1.403       .  A
C893        N900   1.433       .  S
C894        C895   1.406       .  A
C894        H899   1.084       .  S
C895        C896   1.418       .  A
C896        N897   1.433       .  S
N897        H901   1.046       .  S
N897        H902   1.045       .  S
N900        H903   1.046       .  S
N900        H904   1.046       .  S
C905        C906   1.404       .  A
C905        C910   1.402       .  A
C905        H912   1.084       .  S
C906        C907   1.414       .  A
C907        C908   1.404       .  A
C907        N914   1.439       .  S
C908        C909   1.405       .  A
C908        H913   1.081       .  S
C909        C910   1.411       .  A
C910        N911   1.438       .  S
N911        H915   1.046       .  S
N911        H916   1.046       .  S
N914        H917   1.046       .  S
N914        H918   1.046       .  S
C919        C920   1.404       .  A
C919        C924   1.395       .  A
C919        H926   1.084       .  S
C920        C921   1.416       .  A
C921        C922   1.402       .  A
C921        N928   1.432       .  S
C922        C923   1.408       .  A
C922        H927   1.084       .  S
C923        C924   1.415       .  A
C924        N925   1.432       .  S
N925        H929   1.044       .  S
N925        H930   1.045       .  S
N928        H931   1.046       .  S
N928        H932   1.044       .  S
C933        C934   1.406       .  A
C933        C938   1.404       .  A
C933        H940   1.084       .  S
C934        C935   1.409       .  A
C935        C936   1.400       .  A
C935        N942   1.439       .  S
C936        C937   1.406       .  A
C936        H941   1.084       .  S
C937        C938   1.413       .  A
C938        N939   1.439       .  S
N939        H943   1.046       .  S
N939        H944   1.046       .  S
N942        H945   1.046       .  S
N942        H946   1.045       .  S
C947        C948   1.404       .  A
C947        C952   1.402       .  A
C947        H954   1.084       .  S
C948        C949   1.412       .  A
C949        C950   1.403       .  A
C949        N956   1.433   1_655  S
C950        C951   1.406   1_545  A
C950        H955   1.084   1_545  S
C951        C952   1.416   1_565  A
C952        N953   1.439       .  S
N953        H957   1.046       .  S
N953        H958   1.046       .  S
N956        H959   1.046       .  S
N956        H960   1.046   1_455  S
C961        C962   1.405       .  A
C961        C966   1.405       .  A
C961        H968   1.084       .  S
C962        C963   1.411       .  A
C963        C964   1.397       .  A
C963        N970   1.433       .  S
C964        C965   1.402       .  A
C964        H969   1.084       .  S
C965        C966   1.414       .  A
C966        N967   1.433       .  S
N967        H971   1.046       .  S
N967        H972   1.046       .  S
N970        H973   1.046       .  S
N970        H974   1.045       .  S
C975        C976   1.406       .  A
C975        C980   1.397       .  A
C975        H982   1.084       .  S
C976        C977   1.415       .  A
C977        C978   1.396       .  A
C977        N984   1.433   1_655  S
C978        C979   1.406       .  A
C978        H983   1.084       .  S
C979        C980   1.409       .  A
C980        N981   1.433       .  S
N981        H985   1.046       .  S
N981        H986   1.046       .  S
N984        H987   1.046       .  S
N984        H988   1.045       .  S
C989        C990   1.404       .  A
C989        C994   1.399   1_556  A
C989        H996   1.084       .  S
C990        C991   1.420       .  A
C991        C992   1.400   1_556  A
C991        N998   1.433       .  S
C992        C993   1.404       .  A
C992        H997   1.084       .  S
C993        C994   1.420       .  A
C994        N995   1.434       .  S
N995        H999   1.044       .  S
N995       H1000   1.046       .  S
N998       H1001   1.045       .  S
N998       H1002   1.044       .  S
C1003      C1004   1.408       .  A
C1003      C1008   1.409       .  A
C1003      H1010   1.083       .  S
C1004      C1005   1.415       .  A
C1005      C1006   1.400       .  A
C1005      N1012   1.433       .  S
C1006      C1007   1.406       .  A
C1006      H1011   1.084       .  S
C1007      C1008   1.418       .  A
C1008      N1009   1.437       .  S
N1009      H1013   1.046       .  S
N1009      H1014   1.046       .  S
N1012      H1015   1.046       .  S
N1012      H1016   1.045   1_545  S
C1017      C1018   1.405       .  A
C1017      C1022   1.409       .  A
C1017      H1024   1.083       .  S
C1018      C1019   1.417       .  A
C1019      C1020   1.404       .  A
C1019      N1026   1.439       .  S
C1020      C1021   1.406       .  A
C1020      H1025   1.083       .  S
C1021      C1022   1.419       .  A
C1022      N1023   1.437       .  S
N1023      H1027   1.046       .  S
N1023      H1028   1.046       .  S
N1026      H1029   1.046       .  S
N1026      H1030   1.045       .  S
C1031      C1032   1.407       .  A
C1031      C1036   1.407   1_455  A
C1031      H1038   1.083       .  S
C1032      C1033   1.420       .  A
C1033      C1034   1.404   1_455  A
C1033      N1040   1.437       .  S
C1034      C1035   1.403       .  A
C1034      H1039   1.083       .  S
C1035      C1036   1.419       .  A
C1036      N1037   1.438       .  S
N1037      H1041   1.045       .  S
N1037      H1042   1.046       .  S
N1040      H1043   1.045       .  S
N1040      H1044   1.046       .  S
C1045      C1046   1.410       .  A
C1045      C1050   1.403       .  A
C1045      H1052   1.084       .  S
C1046      C1047   1.423       .  A
C1047      C1048   1.402       .  A
C1047      N1054   1.429       .  S
C1048      C1049   1.406       .  A
C1048      H1053   1.084       .  S
C1049      C1050   1.423       .  A
C1050      N1051   1.433       .  S
N1051      H1055   1.044       .  S
N1051      H1056   1.045       .  S
N1054      H1057   1.042       .  S
N1054      H1058   1.045       .  S
C1059      C1060   1.408       .  A
C1059      C1064   1.406       .  A
C1059      H1066   1.083       .  S
C1060      C1061   1.413       .  A
C1061      C1062   1.401       .  A
C1061      N1068   1.439       .  S
C1062      C1063   1.406       .  A
C1062      H1067   1.083       .  S
C1063      C1064   1.409       .  A
C1064      N1065   1.437       .  S
N1065      H1069   1.046       .  S
N1065      H1070   1.046       .  S
N1068      H1071   1.045       .  S
N1068      H1072   1.046       .  S
C1073      C1074   1.406       .  A
C1073      C1078   1.403       .  A
C1073      H1080   1.083   1_545  S
C1074      C1075   1.413       .  A
C1075      C1076   1.404       .  A
C1075      N1082   1.438       .  S
C1076      C1077   1.408       .  A
C1076      H1081   1.083       .  S
C1077      C1078   1.417       .  A
C1078      N1079   1.438       .  S
N1079      H1083   1.046       .  S
N1079      H1084   1.045       .  S
N1082      H1085   1.046   1_545  S
N1082      H1086   1.046       .  S
C1087      C1088   1.408       .  A
C1087      C1092   1.400       .  A
C1087      H1094   1.083       .  S
C1088      C1089   1.420       .  A
C1089      C1090   1.401       .  A
C1089      N1096   1.432       .  S
C1090      C1091   1.410       .  A
C1090      H1095   1.084       .  S
C1091      C1092   1.420       .  A
C1092      N1093   1.430       .  S
N1093      H1097   1.043       .  S
N1093      H1098   1.045       .  S
N1096      H1099   1.043       .  S
N1096      H1100   1.045       .  S
C1101      C1102   1.408       .  A
C1101      C1106   1.412       .  A
C1101      H1108   1.083   1_565  S
C1102      C1103   1.418       .  A
C1103      C1104   1.408       .  A
C1103      N1110   1.438       .  S
C1104      C1105   1.407       .  A
C1104      H1109   1.083       .  S
C1105      C1106   1.420       .  A
C1106      N1107   1.438       .  S
N1107      H1111   1.046       .  S
N1107      H1112   1.046       .  S
N1110      H1113   1.046       .  S
N1110      H1114   1.046       .  S
C1115      C1116   1.401       .  A
C1115      C1120   1.401       .  A
C1115      H1122   1.084       .  S
C1116      C1117   1.414       .  A
C1117      C1118   1.404       .  A
C1117      N1124   1.439       .  S
C1118      C1119   1.405       .  A
C1118      H1123   1.083       .  S
C1119      C1120   1.418       .  A
C1120      N1121   1.439       .  S
N1121      H1125   1.046       .  S
N1121      H1126   1.045       .  S
N1124      H1127   1.046       .  S
N1124      H1128   1.045       .  S
C1129      C1130   1.407       .  A
C1129      C1134   1.398       .  A
C1129      H1136   1.084       .  S
C1130      C1131   1.410       .  A
C1131      C1132   1.403       .  A
C1131      N1138   1.433       .  S
C1132      C1133   1.408       .  A
C1132      H1137   1.084       .  S
C1133      C1134   1.408       .  A
C1134      N1135   1.432       .  S
N1135      H1139   1.046       .  S
N1135      H1140   1.046       .  S
N1138      H1141   1.046       .  S
N1138      H1142   1.045       .  S
C1143      C1144   1.410       .  A
C1143      C1148   1.400       .  A
C1143      H1150   1.084       .  S
C1144      C1145   1.420       .  A
C1145      C1146   1.398       .  A
C1145      N1152   1.429       .  S
C1146      C1147   1.407       .  A
C1146      H1151   1.083       .  S
C1147      C1148   1.420       .  A
C1148      N1149   1.432       .  S
N1149      H1153   1.044       .  S
N1149      H1154   1.045       .  S
N1152      H1155   1.042       .  S
N1152      H1156   1.045       .  S
C1157      C1158   1.408       .  A
C1157      C1162   1.407       .  A
C1157      H1164   1.084       .  S
C1158      C1159   1.421       .  A
C1159      C1160   1.393       .  A
C1159      N1166   1.433       .  S
C1160      C1161   1.402       .  A
C1160      H1165   1.084       .  S
C1161      C1162   1.414       .  A
C1162      N1163   1.439       .  S
N1163      H1167   1.046       .  S
N1163      H1168   1.046       .  S
N1166      H1169   1.045       .  S
N1166      H1170   1.044       .  S
C1171      C1172   1.408       .  A
C1171      C1176   1.402       .  A
C1171      H1178   1.083       .  S
C1172      C1173   1.421       .  A
C1173      C1174   1.399       .  A
C1173      N1180   1.433       .  S
C1174      C1175   1.407       .  A
C1174      H1179   1.084       .  S
C1175      C1176   1.413       .  A
C1176      N1177   1.438       .  S
N1177      H1181   1.045       .  S
N1177      H1182   1.046       .  S
N1180      H1183   1.043       .  S
N1180      H1184   1.045       .  S
C1185      C1186   1.402       .  A
C1185      C1190   1.406       .  A
C1185      H1192   1.084       .  S
C1186      C1187   1.415       .  A
C1187      C1188   1.403       .  A
C1187      N1194   1.439       .  S
C1188      C1189   1.403       .  A
C1188      H1193   1.084       .  S
C1189      C1190   1.416       .  A
C1190      N1191   1.439       .  S
N1191      H1195   1.046       .  S
N1191      H1196   1.046       .  S
N1194      H1197   1.046       .  S
N1194      H1198   1.046       .  S
C1199      C1200   1.403       .  A
C1199      C1204   1.396       .  A
C1199      H1206   1.084       .  S
C1200      C1201   1.410       .  A
C1201      C1202   1.401       .  A
C1201      N1208   1.431       .  S
C1202      C1203   1.405       .  A
C1202      H1207   1.084       .  S
C1203      C1204   1.419       .  A
C1204      N1205   1.433       .  S
N1205      H1209   1.044       .  S
N1205      H1210   1.045       .  S
N1208      H1211   1.046       .  S
N1208      H1212   1.046       .  S
C1213      C1214   1.406       .  A
C1213      C1218   1.405       .  A
C1213      H1220   1.084       .  S
C1214      C1215   1.417       .  A
C1215      C1216   1.404       .  A
C1215      N1222   1.433       .  S
C1216      C1217   1.406       .  A
C1216      H1221   1.084       .  S
C1217      C1218   1.417       .  A
C1218      N1219   1.431       .  S
N1219      H1223   1.046       .  S
N1219      H1224   1.046       .  S
N1222      H1225   1.046       .  S
N1222      H1226   1.046       .  S
C1227      C1228   1.403       .  A
C1227      C1232   1.403       .  A
C1227      H1234   1.084       .  S
C1228      C1229   1.415       .  A
C1229      C1230   1.404       .  A
C1229      N1236   1.438       .  S
C1230      C1231   1.402       .  A
C1230      H1235   1.084       .  S
C1231      C1232   1.414       .  A
C1232      N1233   1.439       .  S
N1233      H1237   1.046       .  S
N1233      H1238   1.046       .  S
N1236      H1239   1.046       .  S
N1236      H1240   1.046       .  S
C1241      C1242   1.406   1_545  A
C1241      C1246   1.395       .  A
C1241      H1248   1.084       .  S
C1242      C1243   1.417   1_565  A
C1243      C1244   1.395       .  A
C1243      N1250   1.431   1_545  S
C1244      C1245   1.404       .  A
C1244      H1249   1.084       .  S
C1245      C1246   1.416       .  A
C1246      N1247   1.433       .  S
N1247      H1251   1.044       .  S
N1247      H1252   1.046       .  S
N1250      H1253   1.044       .  S
N1250      H1254   1.045       .  S
C1255      C1256   1.408       .  A
C1255      C1260   1.408       .  A
C1255      H1262   1.083       .  S
C1256      C1257   1.411       .  A
C1257      C1258   1.399       .  A
C1257      N1264   1.438       .  S
C1258      C1259   1.405       .  A
C1258      H1263   1.083       .  S
C1259      C1260   1.415       .  A
C1260      N1261   1.439       .  S
N1261      H1265   1.046       .  S
N1261      H1266   1.046       .  S
N1264      H1267   1.046       .  S
N1264      H1268   1.046       .  S
C1269      C1270   1.404       .  A
C1269      C1274   1.397       .  A
C1269      H1276   1.084   1_655  S
C1270      C1271   1.416       .  A
C1271      C1272   1.392       .  A
C1271      N1278   1.433       .  S
C1272      C1273   1.402       .  A
C1272      H1277   1.084       .  S
C1273      C1274   1.416       .  A
C1274      N1275   1.433       .  S
N1275      H1279   1.046       .  S
N1275      H1280   1.045       .  S
N1278      H1281   1.045       .  S
N1278      H1282   1.045       .  S
C1283      C1284   1.407       .  A
C1283      C1288   1.406       .  A
C1283      H1290   1.083       .  S
C1284      C1285   1.418       .  A
C1285      C1286   1.405       .  A
C1285      N1292   1.432       .  S
C1286      C1287   1.406       .  A
C1286      H1291   1.083       .  S
C1287      C1288   1.418       .  A
C1288      N1289   1.433       .  S
N1289      H1293   1.046       .  S
N1289      H1294   1.046       .  S
N1292      H1295   1.046       .  S
N1292      H1296   1.046       .  S
