geometry optimzed in LAMMPS
_audit_creation_date              2020-12-01 
_audit_creation_method            'lammps2cif' 
_symmetry_space_group_name_H-M    'P1' 
_symmetry_Int_Tables_number       1 
_symmetry_cell_setting            triclinic 
loop_ 
_symmetry_equiv_pos_as_xyz 
  x,y,z 
_cell_length_a                    37.30933078 
_cell_length_b                    37.64158645205832 
_cell_length_c                    39.39777700613225 
_cell_angle_alpha                 90.21882519236802 
_cell_angle_beta                  89.68115462593188 
_cell_angle_gamma                 90.30283281064749 
loop_ 
_atom_site_label 
_atom_site_type_symbol 
_atom_site_fract_x 
_atom_site_fract_y 
_atom_site_fract_z 
_atom_site_charge 
O1          O  0.38770140  0.97653818  0.12233440    -0.81000
C2          C  0.51474139  0.90127342  0.12936426     0.98400
O3          O  0.51435966  0.93460954  0.13461579    -0.70100
O4          O  0.48117002  0.95126041  0.08119949    -0.73700
Al5        Al  0.47364570  0.96520683  0.12556624     1.49000
C6          C  0.45848462  0.95596371  0.05862038     0.93600
O7          O  0.41373413  0.88836382  0.08687777    -0.79900
O8          O  0.40612904  0.90958834  0.18544227    -0.73500
Al9        Al  0.40217534  0.93219863  0.10579401     1.90100
O10         O  0.42252446  0.86073764  0.13515366    -0.72500
O11         O  0.47391802  0.92831170  0.19350199    -0.72400
O12         O  0.48872949  0.88249602  0.13881451    -0.78000
O13         O  0.46957464  0.98105839  0.17040604    -0.76200
O14         O  0.44083748  0.93202824  0.13132853    -1.12400
O15         O  0.43936721  0.00283026  0.11301162    -0.71600
C16         C  0.40518267  0.00382233  0.11402618     0.99200
C17         C  0.41386724  0.86034937  0.10396101     0.95600
Al18       Al  0.44765013  0.89785672  0.16130936     1.55600
O19         O  0.42521592  0.95352075  0.06539326    -0.76200
C20         C  0.47634845  0.96209987  0.19577145     0.99700
C21         C  0.37579264  0.90572206  0.17212785     0.94600
O22         O  0.37118037  0.91097520  0.14054870    -0.81500
O23         O  0.10514004  0.00678197  0.37775714    -0.81000
C24         C  0.98122574  0.08623697  0.37592269     0.98400
O25         O  0.98028677  0.05346808  0.38388399    -0.70100
O26         O  0.01407808  0.03036042  0.33351141    -0.73700
Al27       Al  0.02050081  0.02073490  0.37796007     1.49000
C28         C  0.03625819  0.02265926  0.31109668     0.93600
O29         O  0.08581252  0.09192295  0.33381192    -0.79900
O30         O  0.08800666  0.08015846  0.43389354    -0.73500
Al31       Al  0.09355689  0.04936973  0.35659575     1.90100
O32         O  0.07481067  0.12436668  0.37922802    -0.72500
O33         O  0.01963077  0.06380262  0.44275637    -0.72400
O34         O  0.00787529  0.10476633  0.38391047    -0.78000
O35         O  0.02366386  0.00913467  0.42346143    -0.76200
O36         O  0.05416042  0.05359039  0.38114477    -1.12400
O37         O  0.05374934  0.98085135  0.36819219    -0.71600
C38         C  0.08785731  0.97943280  0.36976411     0.99200
C39         C  0.08611142  0.12150637  0.34870561     0.95600
Al40       Al  0.04770979  0.09057752  0.40818282     1.55600
O41         O  0.06983385  0.02479930  0.31705107    -0.76200
C42         C  0.01639197  0.03026476  0.44719666     0.99700
C43         C  0.11892027  0.08155215  0.42114809     0.94600
O44         O  0.12448709  0.07272859  0.39029676    -0.81500
O45         O  0.23369816  0.85324299  0.25143186    -0.81000
C46         C  0.15348051  0.72906689  0.25266399     0.98400
O47         O  0.18697974  0.72885560  0.25813822    -0.70100
O48         O  0.20549412  0.76346015  0.20604608    -0.73700
Al49       Al  0.21907904  0.76887457  0.25054558     1.49000
C50         C  0.21292301  0.78616747  0.18423374     0.93600
O51         O  0.14479078  0.83304742  0.21241165    -0.79900
O52         O  0.16336099  0.83539366  0.31176813    -0.73500
Al53       Al  0.18926987  0.84147629  0.23278335     1.90100
O54         O  0.11544949  0.82240928  0.25993580    -0.72500
O55         O  0.18088841  0.76765750  0.31849985    -0.72400
O56         O  0.13507005  0.75516582  0.26211378    -0.78000
O57         O  0.23448192  0.77102125  0.29531935    -0.76200
O58         O  0.18662247  0.80211806  0.25690012    -1.12400
O59         O  0.25839050  0.80210811  0.23958238    -0.71600
C60         C  0.26077085  0.83575910  0.24266416     0.99200
C61         C  0.11625452  0.83390514  0.22950158     0.95600
Al62       Al  0.15125514  0.79520714  0.28611673     1.55600
O63         O  0.21165385  0.81912938  0.19173328    -0.76200
C64         C  0.21499533  0.76455730  0.32067064     0.99700
C65         C  0.16068618  0.86601485  0.29936904     0.94600
O66         O  0.16788326  0.87157405  0.26817268    -0.81500
O67         O  0.86600384  0.92243534  0.12800386    -0.81000
C68         C  0.01227007  0.91606957  0.15528712     0.98400
O69         O  0.99900293  0.90248409  0.12885387    -0.70100
O70         O  0.94553160  0.86327470  0.15325755    -0.73700
Al71       Al  0.94980749  0.89860495  0.11715057     1.49000
C72         C  0.91985215  0.86033012  0.17427330     0.93600
O73         O  0.92208787  0.93934383  0.21012543    -0.79900
O74         O  0.92490346  0.00491827  0.13089598    -0.73500
Al75       Al  0.89536832  0.93184162  0.16759326     1.90100
O76         O  0.94977956  0.98586020  0.19031932    -0.72500
O77         O  0.98270294  0.97252219  0.10310133    -0.72400
O78         O  0.00082485  0.94577239  0.16598963    -0.78000
O79         O  0.95554651  0.92877105  0.07749476    -0.76200
O80         O  0.93539443  0.93469209  0.14321750    -1.12400
O81         O  0.90390814  0.88772857  0.10098999    -0.71600
C82         C  0.87279026  0.89989471  0.10465630     0.99200
C83         C  0.94251845  0.96598986  0.21453571     0.95600
Al84       Al  0.96262567  0.97370706  0.14684255     1.55600
O85         O  0.89710228  0.88423522  0.17719578    -0.76200
C86         C  0.97300839  0.95772444  0.07615227     0.99700
C87         C  0.89522838  0.00646890  0.14720535     0.94600
O88         O  0.88395105  0.97995889  0.16354163    -0.81500
O89         O  0.82652165  0.11776008  0.24705687    -0.81000
C90         C  0.84709470  0.25928397  0.26607675     0.98400
O91         O  0.86487317  0.23277756  0.25668798    -0.70100
O92         O  0.88215747  0.16536389  0.25735706    -0.73700
Al93       Al  0.84728273  0.19411248  0.23164239     1.49000
C94         C  0.88055754  0.15386487  0.28776012     0.93600
O95         O  0.78673987  0.17089302  0.32561194    -0.79900
O96         O  0.74005521  0.19060123  0.27966147    -0.73500
Al97       Al  0.80713257  0.14803068  0.28366552     1.90100
O98         O  0.79516135  0.22668904  0.31235461    -0.72500
O99         O  0.76479426  0.22043642  0.22318602    -0.72400
O100        O  0.81393059  0.26072529  0.25933546    -0.78000
O101        O  0.81849966  0.22346566  0.20006269    -0.76200
O102        O  0.81166860  0.18778216  0.26069119    -1.12400
O103        O  0.83359739  0.15540825  0.20490128    -0.71600
C104        C  0.83343027  0.12413566  0.21590023     0.99200
C105        C  0.78702849  0.20378917  0.33389861     0.95600
Al106      Al  0.78059466  0.22212292  0.26779472     1.55600
O107        O  0.85153400  0.15348778  0.30390999    -0.76200
C108        C  0.78442725  0.22716135  0.19794340     0.99700
C109        C  0.73619859  0.15716069  0.27595059     0.94600
O110        O  0.76204599  0.13921443  0.26506097    -0.81500
O111        O  0.16458642  0.37415401  0.25468641    -0.81000
C112        C  0.15022187  0.23152583  0.26504000     0.98400
O113        O  0.13148381  0.25805043  0.25811528    -0.70100
O114        O  0.11228441  0.32445246  0.26455282    -0.73700
Al115      Al  0.14596992  0.29856404  0.23457295     1.49000
C116        C  0.11530526  0.33362401  0.29559092     0.93600
O117        O  0.21215832  0.31742096  0.32534046    -0.79900
O118        O  0.25671667  0.30348811  0.27356563    -0.73500
Al119      Al  0.18789352  0.34217118  0.28715681     1.90100
O120        O  0.20658945  0.26236376  0.30797863    -0.72500
O121        O  0.22797832  0.27633217  0.21743125    -0.72400
O122        O  0.18301695  0.23116109  0.25583901    -0.78000
O123        O  0.17271762  0.27185321  0.19875313    -0.76200
O124        O  0.18345666  0.30416065  0.26133722    -1.12400
O125        O  0.15658954  0.33966656  0.20998021    -0.71600
C126        C  0.15574774  0.36990875  0.22369998     0.99200
C127        C  0.21378645  0.28408069  0.33087686     0.95600
Al128      Al  0.21631511  0.27082205  0.26311565     1.55600
O129        O  0.14510378  0.33272999  0.31010697    -0.76200
C130        C  0.20658958  0.27017432  0.19358700     0.99700
C131        C  0.25869808  0.33733219  0.27288252     0.94600
O132        O  0.23116335  0.35492511  0.26630722    -0.81500
O133        O  0.12494740  0.57805075  0.12857790    -0.81000
C134        C  0.98096615  0.58860533  0.13722387     0.98400
O135        O  0.00752951  0.60756243  0.12970654    -0.70100
O136        O  0.07401590  0.62867950  0.13583029    -0.73700
Al137      Al  0.04892658  0.59317151  0.10727334     1.49000
C138        C  0.08231029  0.62736464  0.16714598     0.93600
O139        O  0.06772076  0.53250356  0.20092178    -0.79900
O140        O  0.05438171  0.48608226  0.15151589    -0.73500
Al141      Al  0.09263320  0.55537838  0.16193971     1.90100
O142        O  0.01221683  0.53650031  0.18370225    -0.72500
O143        O  0.02742343  0.51063412  0.09420771    -0.72400
O144        O  0.98123665  0.55575175  0.12968282    -0.78000
O145        O  0.02316887  0.56432591  0.07291357    -0.76200
O146        O  0.05463856  0.55750984  0.13575384    -1.12400
O147        O  0.09072878  0.58244148  0.08340030    -0.71600
C148        C  0.12085042  0.58547346  0.09726127     0.99200
C149        C  0.03412292  0.53027690  0.20667057     0.95600
Al150      Al  0.02129402  0.52447212  0.13915328     1.55600
O151        O  0.08160519  0.59847263  0.18284571    -0.76200
C152        C  0.02145449  0.53055964  0.06938079     0.99700
C153        C  0.08849924  0.48436826  0.15107311     0.94600
O154        O  0.10653193  0.51153700  0.14346439    -0.81500
O155        O  0.88508284  0.47727759  0.37368747    -0.81000
C156        C  0.01230956  0.40285316  0.38210307     0.98400
O157        O  0.01171850  0.43622364  0.38755895    -0.70100
O158        O  0.97987040  0.45464904  0.33395696    -0.73700
Al159      Al  0.97093646  0.46707001  0.37843423     1.49000
C160        C  0.95771684  0.45970019  0.31096845     0.93600
O161        O  0.91306092  0.39044105  0.33674197    -0.79900
O162        O  0.90242045  0.41050515  0.43551366    -0.73500
Al163      Al  0.90046078  0.43376253  0.35627678     1.90100
O164        O  0.92010835  0.36215921  0.38497491    -0.72500
O165        O  0.96990547  0.42858653  0.44561731    -0.72400
O166        O  0.98601247  0.38400378  0.39064799    -0.78000
O167        O  0.96540943  0.48172372  0.42349322    -0.76200
O168        O  0.93840241  0.43344975  0.38265091    -1.12400
O169        O  0.93640215  0.50467057  0.36591184    -0.71600
C170        C  0.90215567  0.50497043  0.36607574     0.99200
C171        C  0.91257426  0.36217611  0.35349762     0.95600
Al172      Al  0.94446429  0.39888257  0.41230145     1.55600
O173        O  0.92430809  0.45647738  0.31685839    -0.76200
C174        C  0.97179387  0.46230567  0.44861039     0.99700
C175        C  0.87248503  0.40609521  0.42157289     0.94600
O176        O  0.86879641  0.41143847  0.38985870    -0.81500
O177        O  0.32729799  0.61716434  0.00150359    -0.81000
C178        C  0.34616979  0.75890513  0.01698932     0.98400
O179        O  0.36477421  0.73287617  0.50516780    -0.70100
O180        O  0.38113405  0.66546587  0.01272774    -0.73700
Al181      Al  0.35035076  0.69166164  0.48229137     1.49000
C182        C  0.37786806  0.65457251  0.04329125     0.93600
O183        O  0.28203507  0.67172185  0.07595150    -0.79900
O184        O  0.23801774  0.68991178  0.02752956    -0.73500
Al185      Al  0.30511594  0.64820711  0.03573722     1.90100
O186        O  0.29155071  0.72712802  0.06191533    -0.72500
O187        O  0.26729086  0.71341882  0.46931803    -0.72400
O188        O  0.31306600  0.76042776  0.00980234    -0.78000
O189        O  0.32152999  0.71727713  0.44770588    -0.76200
O190        O  0.31066036  0.68741522  0.01198645    -1.12400
O191        O  0.34021727  0.64986419  0.45804516    -0.71600
C192        C  0.34259403  0.61988329  0.47195003     0.99200
C193        C  0.28235471  0.70475008  0.08350879     0.95600
Al194      Al  0.27920715  0.72171358  0.01703554     1.55600
O195        O  0.34806532  0.65476998  0.05812584    -0.76200
C196        C  0.28750191  0.72005381  0.44451568     0.99700
C197        C  0.23488436  0.65626877  0.02445696     0.94600
O198        O  0.26139012  0.63852954  0.01473682    -0.81500
O199        O  0.73019876  0.35222626  0.49993444    -0.81000
C200        C  0.65008616  0.23183212  0.00704616     0.98400
O201        O  0.68328914  0.23147607  0.01407680    -0.70100
O202        O  0.70559994  0.25821053  0.46026129    -0.73700
Al203      Al  0.71842959  0.26753780  0.50456543     1.49000
C204        C  0.71273089  0.27965573  0.43716521     0.93600
O205        O  0.64313148  0.32515108  0.46195670    -0.79900
O206        O  0.66084880  0.34066714  0.06141409    -0.73500
Al207      Al  0.68652125  0.33744122  0.48193007     1.90100
O208        O  0.61281843  0.32502871  0.00989605    -0.72500
O209        O  0.67766502  0.27347880  0.07156951    -0.72400
O210        O  0.63185571  0.25841637  0.01537660    -0.78000
O211        O  0.73120329  0.27601131  0.04829131    -0.76200
O212        O  0.68386530  0.30436692  0.00831495    -1.12400
O213        O  0.75694322  0.30112815  0.49152795    -0.71600
C214        C  0.75774368  0.33500309  0.49206199     0.99200
C215        C  0.61422033  0.32600645  0.47830864     0.95600
Al216      Al  0.64832382  0.29937945  0.03769120     1.55600
O217        O  0.71012847  0.31297330  0.44265066    -0.76200
C218        C  0.71181308  0.27100506  0.07400184     0.99700
C219        C  0.65897497  0.37079547  0.04786863     0.94600
O220        O  0.66609371  0.37469355  0.01637228    -0.81500
O221        O  0.37068841  0.41243628  0.37422275    -0.81000
C222        C  0.51412225  0.39367873  0.38974294     0.98400
O223        O  0.48742033  0.37593115  0.38022885    -0.70100
O224        O  0.41953148  0.35808625  0.38243181    -0.73700
Al225      Al  0.44758995  0.39314995  0.35642728     1.49000
C226        C  0.40765997  0.35937244  0.41276727     0.93600
O227        O  0.42515653  0.45212197  0.45150701    -0.79900
O228        O  0.44474816  0.49916197  0.40528536    -0.73500
Al229      Al  0.40172749  0.43194788  0.41000682     1.90100
O230        O  0.48123523  0.44444293  0.43717378    -0.72500
O231        O  0.47411921  0.47525365  0.34844189    -0.72400
O232        O  0.51540367  0.42672750  0.38368896    -0.78000
O233        O  0.47599950  0.42247710  0.32430442    -0.76200
O234        O  0.44151395  0.42819222  0.38597375    -1.12400
O235        O  0.40751172  0.40584979  0.33086443    -0.71600
C236        C  0.37631041  0.40478876  0.34310006     0.99200
C237        C  0.45839614  0.45231896  0.45910039     0.95600
Al238      Al  0.47631643  0.45923113  0.39277898     1.55600
O239        O  0.40776271  0.38779929  0.42942832    -0.76200
C240        C  0.47898698  0.45633532  0.32249007     0.99700
C241        C  0.41095244  0.50268334  0.40273548     0.94600
O242        O  0.39210391  0.47706074  0.39257822    -0.81500
O243        O  0.26046722  0.13527828  0.49956084    -0.81000
C244        C  0.33959800  0.25827898  0.00396710     0.98400
O245        O  0.30649925  0.25818888  0.01200517    -0.70100
O246        O  0.28749378  0.22628614  0.45572768    -0.73700
Al247      Al  0.27506439  0.21930875  0.50038808     1.49000
C248        C  0.28068857  0.20391932  0.43328405     0.93600
O249        O  0.34798044  0.15614961  0.45802283    -0.79900
O250        O  0.33260223  0.14970990  0.05894754    -0.73500
Al251      Al  0.30444735  0.14725978  0.47968179     1.90100
O252        O  0.37876121  0.16570380  0.00566473    -0.72500
O253        O  0.31435259  0.21737761  0.06924315    -0.72400
O254        O  0.35835482  0.23197081  0.01158033    -0.79600
O255        O  0.26004316  0.21265664  0.04811350    -0.76200
O256        O  0.30727418  0.18504766  0.00650878    -1.12400
O257        O  0.23547538  0.18642671  0.48919459    -0.71600
C258        C  0.23324654  0.15271774  0.49152734     0.99200
C259        C  0.37731684  0.15659231  0.47342344     0.95600
Al260      Al  0.34343486  0.19112469  0.03460835     1.55600
O261        O  0.28157355  0.17078239  0.43998178    -0.76200
C262        C  0.28019919  0.21914837  0.07280915     0.99700
C263        C  0.33476085  0.11949468  0.04525528     0.94600
O264        O  0.32689273  0.11525830  0.01399760    -0.81500
O265        O  0.62863024  0.07596478  0.38067231    -0.81000
C266        C  0.48464332  0.09048090  0.38889642     0.98400
O267        O  0.51183228  0.10867103  0.38168345    -0.70100
O268        O  0.57869258  0.12725598  0.38900922    -0.73700
Al269      Al  0.55305455  0.09319038  0.35930577     1.49000
C270        C  0.58773172  0.12461745  0.42008523     0.93600
O271        O  0.57044455  0.02947807  0.45159834    -0.79900
O272        O  0.55587562  0.98493047  0.40182208    -0.73500
Al273      Al  0.59580496  0.05298904  0.41302231     1.90100
O274        O  0.51529613  0.03683033  0.43469287    -0.72500
O275        O  0.52895318  0.01166088  0.34528169    -0.72400
O276        O  0.48416166  0.05752807  0.38161471    -0.78000
O277        O  0.52673569  0.06546591  0.32418716    -0.76200
O278        O  0.55770680  0.05700710  0.38717885    -1.12400
O279        O  0.59480460  0.08153945  0.33545386    -0.71600
C280        C  0.62485510  0.08391207  0.34953421     0.99200
C281        C  0.53678609  0.02869427  0.45738379     0.95600
Al282      Al  0.52354640  0.02490013  0.39022908     1.55600
O283        O  0.58641759  0.09537519  0.43512602    -0.76200
C284        C  0.52351373  0.03176920  0.32052309     0.99700
C285        C  0.59001498  0.98296741  0.40068927     0.94600
O286        O  0.60811990  0.00985532  0.39263692    -0.81500
O287        O  0.66625174  0.87344611  0.00209049    -0.81000
C288        C  0.65043519  0.73158587  0.01366237     0.98400
O289        O  0.63809092  0.75646055  0.50870531    -0.70100
O290        O  0.61377850  0.82404606  0.01007157    -0.73700
Al291      Al  0.65175219  0.79728076  0.48470295     1.49000
C292        C  0.61553254  0.83262923  0.04134129     0.93600
O293        O  0.71081982  0.81711929  0.07531202    -0.79900
O294        O  0.75698850  0.80211828  0.02591394    -0.73500
Al295      Al  0.68825589  0.84154407  0.03577128     1.90100
O296        O  0.70432777  0.76215609  0.05851228    -0.72500
O297        O  0.73474015  0.77666731  0.47000974    -0.72400
O298        O  0.68355725  0.73039158  0.00579166    -0.78000
O299        O  0.68016079  0.77109161  0.44995556    -0.76200
O300        O  0.68475111  0.80337438  0.01009518    -1.12400
O301        O  0.66111960  0.83802913  0.45911093    -0.71600
C302        C  0.65950547  0.86868747  0.47180803     0.99200
C303        C  0.71174509  0.78382100  0.08136313     0.95600
Al304      Al  0.71687047  0.76963331  0.01408806     1.55600
O305        O  0.64471210  0.83202004  0.05690563    -0.76200
C306        C  0.71419273  0.77014087  0.44564806     0.99700
C307        C  0.75937017  0.83596202  0.02501606     0.94600
O308        O  0.73255994  0.85385061  0.01662760    -0.81500
O309        O  0.75569617  0.64173544  0.25335462    -0.81000
C310        C  0.85097327  0.75521228  0.25453544     0.98400
O311        O  0.81778880  0.75949882  0.26058384    -0.70100
O312        O  0.79425352  0.72825529  0.20763178    -0.73700
Al313      Al  0.78076000  0.72346379  0.25240188     1.49000
C314        C  0.78288883  0.70709572  0.18572837     0.93600
O315        O  0.84419028  0.65126846  0.21021552    -0.79900
O316        O  0.82937639  0.64936540  0.30973723    -0.73500
Al317      Al  0.80051084  0.64800988  0.23247416     1.90100
O318        O  0.87727377  0.65958025  0.25587369    -0.72500
O319        O  0.81979985  0.71770858  0.31941625    -0.72400
O320        O  0.86586406  0.72671953  0.26210094    -0.78000
O321        O  0.76598259  0.72133712  0.29718138    -0.76200
O322        O  0.80900410  0.68646752  0.25690697    -1.12400
O323        O  0.73720072  0.69526535  0.24152255    -0.71600
C324        C  0.73072423  0.66212066  0.24495167     0.99200
C325        C  0.87383728  0.64971772  0.22502065     0.95600
Al326      Al  0.84549000  0.68849258  0.28499406     1.55600
O327        O  0.77987626  0.67406172  0.19285236    -0.76200
C328        C  0.78611231  0.72336603  0.32250599     0.99700
C329        C  0.82961290  0.61889771  0.29673486     0.94600
O330        O  0.82023186  0.61449565  0.26593165    -0.81500
O331        O  0.60721079  0.51477819  0.12510901    -0.81000
C332        C  0.48076377  0.59034720  0.13237138     0.98400
O333        O  0.48095615  0.55727018  0.13895998    -0.70100
O334        O  0.51267058  0.53843703  0.08509824    -0.73700
Al335      Al  0.52149251  0.52614480  0.12936777     1.49000
C336        C  0.53455088  0.53215300  0.06194050     0.93600
O337        O  0.58078884  0.60068610  0.08643848    -0.79900
O338        O  0.59051414  0.58352827  0.18586164    -0.73500
Al339      Al  0.59255106  0.55803763  0.10681632     1.90100
O340        O  0.57332308  0.63081029  0.13384018    -0.72500
O341        O  0.52296320  0.56504114  0.19673839    -0.72400
O342        O  0.50702710  0.60918100  0.14086305    -0.78000
O343        O  0.52709778  0.51191990  0.17393975    -0.76200
O344        O  0.55442158  0.55946143  0.13326617    -1.12400
O345        O  0.55565201  0.48800627  0.11681244    -0.71600
C346        C  0.58987158  0.48717284  0.11758832     0.99200
C347        C  0.58255422  0.62939435  0.10255906     0.95600
Al348      Al  0.54846738  0.59464228  0.16251358     1.55600
O349        O  0.56816621  0.53436594  0.06756319    -0.76200
C350        C  0.52151663  0.53117641  0.19946271     0.99700
C351        C  0.62036908  0.58833617  0.17167014     0.94600
O352        O  0.62443556  0.58183971  0.14005591    -0.81500
C353        C  0.67579542  0.66316065  0.20851252     0.24400
C354        C  0.69703323  0.64541191  0.23239597    -0.23700
C355        C  0.69064500  0.60876488  0.23784827     0.19300
C356        C  0.66608224  0.58993213  0.21777539     0.24400
C357        C  0.64811525  0.60703917  0.19142432    -0.23600
C358        C  0.65207334  0.64403101  0.18784250     0.19300
F359        F  0.63275244  0.66182354  0.16437246    -0.13600
F360        F  0.67935662  0.69870759  0.20370603    -0.15900
F361        F  0.66035803  0.55482976  0.22361621    -0.15900
F362        F  0.70907629  0.59080008  0.26188947    -0.13600
C363        C  0.58125892  0.68729910  0.07177212     0.24400
C364        C  0.60063714  0.65881875  0.08469801    -0.23700
C365        C  0.63629257  0.65373131  0.07376313     0.19300
C366        C  0.65224419  0.67643915  0.04994432     0.24400
C367        C  0.63281630  0.70484882  0.03629905    -0.23600
C368        C  0.59706876  0.71015726  0.04790811     0.19300
F369        F  0.57701812  0.73743013  0.03615919    -0.13600
F370        F  0.54651013  0.69204870  0.08105229    -0.15900
F371        F  0.68672507  0.67051343  0.04040883    -0.15900
F372        F  0.65549675  0.62588202  0.08557032    -0.13600
C373        C  0.76768302  0.76943872  0.40653918     0.24400
C374        C  0.73154093  0.75965307  0.41302782    -0.23700
C375        C  0.71420430  0.73711407  0.38987595     0.19300
C376        C  0.73259634  0.72429614  0.36126970     0.24400
C377        C  0.76880240  0.73380067  0.35503914    -0.23600
C378        C  0.78609367  0.75645481  0.37802692     0.19300
F379        F  0.82036449  0.76722080  0.37222890    -0.13600
F380        F  0.78527245  0.79213775  0.42761773    -0.15900
F381        F  0.71496482  0.70210136  0.33973514    -0.15900
F382        F  0.67980948  0.72656942  0.39536980    -0.13600
C383        C  0.75964738  0.77985307  0.12458219     0.24400
C384        C  0.72673890  0.76769398  0.11212010    -0.23700
C385        C  0.71460489  0.73338777  0.12138861     0.19300
C386        C  0.73529130  0.71146167  0.14195214     0.24400
C387        C  0.76767729  0.72396363  0.15526767    -0.23600
C388        C  0.77989125  0.75828299  0.14591299     0.19300
F389        F  0.81149647  0.77117934  0.15778202    -0.13600
F390        F  0.77321368  0.81172459  0.11461877    -0.15900
F391        F  0.72308798  0.67842554  0.14958721    -0.15900
F392        F  0.68302489  0.72057969  0.10936163    -0.13600
C393        C  0.63889206  0.95973663  0.43725618     0.24400
C394        C  0.60949585  0.95265398  0.41563750    -0.23700
C395        C  0.59785062  0.91748258  0.41154485     0.19300
C396        C  0.61524208  0.88995215  0.42870577     0.24400
C397        C  0.64381605  0.89737494  0.45117680    -0.23600
C398        C  0.65539619  0.93249498  0.45517018     0.19300
F399        F  0.68263155  0.94056376  0.47663519    -0.13600
F400        F  0.65071463  0.99343480  0.44264087    -0.15900
F401        F  0.60295534  0.85620268  0.42456498    -0.15900
F402        F  0.56965004  0.90980872  0.39111067    -0.13600
C403        C  0.45458062  0.14518072  0.41250246     0.24400
C404        C  0.45553660  0.10770465  0.40893270    -0.23700
C405        C  0.43194335  0.08711729  0.42882351     0.19300
C406        C  0.40838123  0.10343620  0.45173454     0.24400
C407        C  0.40776713  0.14059067  0.45534092    -0.23600
C408        C  0.43064934  0.16138447  0.43526641     0.19300
F409        F  0.42899763  0.19738383  0.43691199    -0.13600
F410        F  0.47663386  0.16632613  0.39379371    -0.15900
F411        F  0.38527128  0.08289780  0.46991113    -0.15900
F412        F  0.43217361  0.05110765  0.42685030    -0.13600
C413        C  0.48314272  0.51198295  0.28731038     0.24400
C414        C  0.48927105  0.47502055  0.29059339    -0.23700
C415        C  0.50676161  0.45719315  0.26402252     0.19300
C416        C  0.51803723  0.47571089  0.23507005     0.24400
C417        C  0.51186992  0.51269847  0.23171666    -0.23600
C418        C  0.49435358  0.53051008  0.25831638     0.19300
F419        F  0.48710625  0.56571831  0.25600561    -0.13600
F420        F  0.46564064  0.53040022  0.31199250    -0.15900
F421        F  0.53534297  0.45714371  0.21036927    -0.15900
F422        F  0.51374224  0.42191292  0.26624984    -0.13600
C423        C  0.49899319  0.46185480  0.00451081     0.24400
C424        C  0.47332261  0.46813887  0.49019898    -0.23700
C425        C  0.46712535  0.50426939  0.49658922     0.19300
C426        C  0.49084862  0.52397008  0.51671636     0.24400
C427        C  0.51843356  0.51685302  0.03128328    -0.23600
C428        C  0.52328447  0.48052889  0.02487916     0.19300
F429        F  0.55031248  0.46262558  0.04003056    -0.13600
F430        F  0.50494301  0.42691608  0.99798056    -0.15900
F431        F  0.48361822  0.55869581  0.52305414    -0.15900
F432        F  0.43931464  0.52108158  0.48164963    -0.13600
C433        C  0.35313371  0.33042078  0.43490265     0.24400
C434        C  0.39037544  0.32913353  0.42931969    -0.23700
C435        C  0.41111719  0.30543970  0.44780357     0.19300
C436        C  0.39506827  0.28364004  0.47217845     0.24400
C437        C  0.35765222  0.28512506  0.47850635    -0.23600
C438        C  0.33682700  0.30855974  0.45917956     0.19300
F439        F  0.30269514  0.32204714  0.98437129    -0.13600
F440        F  0.33275369  0.35404069  0.41768999    -0.15900
F441        F  0.41649880  0.26140208  0.48987045    -0.15900
F442        F  0.44725157  0.30482605  0.44353296    -0.13600
C443        C  0.56863705  0.32189879  0.43279373     0.24400
C444        C  0.58353247  0.34078682  0.46011137    -0.23700
C445        C  0.57753415  0.37747876  0.46269503     0.19300
C446        C  0.55737521  0.39514296  0.43818656     0.24400
C447        C  0.54122415  0.37616016  0.41141180    -0.23600
C448        C  0.54688576  0.33918262  0.40916208     0.19300
F449        F  0.53230445  0.31993911  0.38344411    -0.13600
F450        F  0.57636925  0.28696773  0.42832650    -0.15900
F451        F  0.55348029  0.43084911  0.44098225    -0.15900
F452        F  0.59316506  0.39667619  0.48789629    -0.13600
C453        C  0.65776281  0.43473460  0.06617505     0.24400
C454        C  0.64399851  0.40019313  0.06845584    -0.23700
C455        C  0.61400648  0.39373135  0.08966217     0.19300
C456        C  0.59692740  0.42167468  0.10674698     0.24400
C457        C  0.61015152  0.45642752  0.10388847    -0.23600
C458        C  0.64144923  0.46249660  0.08415091     0.19300
F459        F  0.65530472  0.49571661  0.08062346    -0.13600
F460        F  0.68693061  0.44164615  0.04646583    -0.15900
F461        F  0.56723541  0.41481477  0.12573529    -0.15900
F462        F  0.60000286  0.36050306  0.09250615    -0.13600
C463        C  0.59882517  0.20031834  0.48119510     0.24400
C464        C  0.63613995  0.19894719  0.48783870    -0.23700
C465        C  0.65704789  0.17401694  0.47008324     0.19300
C466        C  0.64125896  0.15163340  0.44599629     0.24400
C467        C  0.60440073  0.15377574  0.43899232    -0.23600
C468        C  0.58323664  0.17788297  0.45700640     0.19300
F469        F  0.54725231  0.17873670  0.45209342    -0.13600
F470        F  0.57715910  0.22337553  0.49805546    -0.15900
F471        F  0.66186727  0.12698789  0.43004830    -0.15900
F472        F  0.69283347  0.17149294  0.47558729    -0.13600
C473        C  0.36382389  0.52714743  0.44098644     0.24400
C474        C  0.39237708  0.53344161  0.41804326    -0.23700
C475        C  0.40413794  0.56836382  0.41273755     0.19300
C476        C  0.38691429  0.59663423  0.42928972     0.24400
C477        C  0.35844089  0.59021618  0.45235787    -0.23600
C478        C  0.34744561  0.55517556  0.45829509     0.19300
F479        F  0.32096203  0.54797811  0.48107383    -0.13600
F480        F  0.35290206  0.49354623  0.44819104    -0.15900
F481        F  0.39928082  0.63015795  0.42400131    -0.15900
F482        F  0.43230787  0.57505235  0.39171559    -0.13600
C483        C  0.43236560  0.65896818  0.07908903     0.24400
C484        C  0.40718140  0.63797476  0.06212261    -0.23700
C485        C  0.40416479  0.60168029  0.07027407     0.19300
C486        C  0.42670468  0.58630481  0.09436338     0.24400
C487        C  0.45254562  0.60710377  0.11121227    -0.23600
C488        C  0.45473604  0.64386108  0.10346031     0.19300
F489        F  0.47845917  0.66552719  0.11953173    -0.13600
F490        F  0.43418495  0.69445201  0.07317884    -0.15900
F491        F  0.42322980  0.55107705  0.10096359    -0.15900
F492        F  0.37849249  0.58125872  0.05543555    -0.13600
C493        C  0.84928985  0.52841400  0.33407677     0.24400
C494        C  0.88160844  0.53514236  0.35187592    -0.23700
C495        C  0.89547002  0.56978254  0.35220846     0.19300
C496        C  0.87767764  0.59700068  0.33514316     0.24400
C497        C  0.84604476  0.58999474  0.31660135    -0.23600
C498        C  0.83206922  0.55548734  0.31625261     0.19300
F499        F  0.80179545  0.54794151  0.29860608    -0.13600
F500        F  0.83513404  0.49515789  0.33230580    -0.15900
F501        F  0.89252660  0.63000759  0.33538224    -0.15900
F502        F  0.92653635  0.57724153  0.36860699    -0.13600
C503        C  0.80741970  0.39747113  0.43384071     0.24400
C504        C  0.84315003  0.39053336  0.44186974    -0.23700
C505        C  0.85091037  0.36592026  0.46783552     0.19300
C506        C  0.82327210  0.34786088  0.48471391     0.24400
C507        C  0.78761561  0.35494082  0.47665669    -0.23600
C508        C  0.77990489  0.38024072  0.45135450     0.19300
F509        F  0.74561602  0.38706452  0.44218741    -0.13600
F510        F  0.79907862  0.42064745  0.40878457    -0.15900
F511        F  0.82141615  0.30053350  0.96732819    -0.15900
F512        F  0.88530385  0.35795506  0.47577133    -0.13600
C513        C  0.95486683  0.64062021  0.16889015     0.24400
C514        C  0.95194626  0.60471940  0.15808314    -0.23700
C515        C  0.92387695  0.58375123  0.17130319     0.19300
C516        C  0.89960954  0.59822369  0.19465520     0.24400
C517        C  0.90320834  0.63362868  0.20569041    -0.23600
C518        C  0.93077311  0.65475621  0.19255875     0.19300
F519        F  0.93349982  0.68949838  0.20163193    -0.13600
F520        F  0.98114636  0.66230287  0.15678113    -0.15900
F521        F  0.87211330  0.57775337  0.20628888    -0.15900
F522        F  0.91993705  0.54920734  0.16194112    -0.13600
C523        C  0.98875443  0.53068841  0.01366140     0.24400
C524        C  0.01061979  0.51316002  0.03705003    -0.23700
C525        C  0.01946277  0.47716413  0.03089043     0.19300
C526        C  0.00679333  0.45928318  0.00209037     0.24400
C527        C  0.98318215  0.47978556  0.48084326    -0.23600
C528        C  0.98051227  0.51709264  0.48495438     0.19300
F529        F  0.96531325  0.53749042  0.46065472    -0.13600
F530        F  0.97848753  0.56477479  0.01920694    -0.15900
F531        F  0.01667912  0.42504768  0.99669556    -0.15900
F532        F  0.04085000  0.45916201  0.05260000    -0.13600
C533        C  0.98656912  0.52968364  0.25036460     0.24400
C534        C  0.01840686  0.51480185  0.23734800    -0.23700
C535        C  0.02710327  0.47973848  0.24567939     0.19300
C536        C  0.00433796  0.45987097  0.26657785     0.24400
C537        C  0.97275431  0.47487503  0.27990638    -0.23600
C538        C  0.96401808  0.50994216  0.27160063     0.19300
F539        F  0.93482738  0.52575517  0.28563917    -0.13600
F540        F  0.97698208  0.56321373  0.24173227    -0.15900
F541        F  0.01350365  0.42609114  0.27466857    -0.15900
F542        F  0.05654477  0.46406784  0.23205288    -0.13600
C543        C  0.18169525  0.58496928  0.07061677     0.24400
C544        C  0.14959081  0.60247185  0.07736603    -0.23700
C545        C  0.14405971  0.63666891  0.06396778     0.19300
C546        C  0.17096542  0.65374873  0.04514429     0.24400
C547        C  0.20365744  0.63663197  0.03880644    -0.23600
C548        C  0.20834830  0.60157528  0.05118182     0.19300
F549        F  0.23943959  0.58371272  0.04603159    -0.13600
F550        F  0.18717406  0.55171581  0.08270195    -0.15900
F551        F  0.17321150  0.68431687  0.54143753    -0.15900
F552        F  0.11293373  0.65411513  0.07020414    -0.13600
C553        C  0.32448325  0.34089418  0.28707119     0.24400
C554        C  0.29066216  0.35694993  0.28573946    -0.23700
C555        C  0.28616282  0.39065657  0.30142907     0.19300
C556        C  0.31406338  0.40659555  0.31967467     0.24400
C557        C  0.34737693  0.39001548  0.32170949    -0.23600
C558        C  0.35269623  0.35750242  0.30447264     0.19300
F559        F  0.38475020  0.34070295  0.30615012    -0.13600
F560        F  0.33001440  0.30870779  0.27234397    -0.15900
F561        F  0.30840421  0.43811243  0.33564987    -0.15900
F562        F  0.25407512  0.40749936  0.30099953    -0.13600
C563        C  0.20951175  0.23003093  0.14223535     0.24400
C564        C  0.22289313  0.25917419  0.16063005    -0.23700
C565        C  0.25583220  0.27450565  0.15029253     0.19300
C566        C  0.27530185  0.26060534  0.12274748     0.24400
C567        C  0.26236582  0.23104346  0.10476506    -0.23600
C568        C  0.22895150  0.21619365  0.11454141     0.19300
F569        F  0.21530041  0.18780792  0.09748672    -0.13600
F570        F  0.17848402  0.21392938  0.15196247    -0.15900
F571        F  0.30605008  0.27702880  0.11275774    -0.15900
F572        F  0.26914633  0.30333022  0.16689140    -0.13600
C573        C  0.22987226  0.21367696  0.39499401     0.24400
C574        C  0.26624835  0.21914793  0.40210635    -0.23700
C575        C  0.28388859  0.24903346  0.38826260     0.19300
C576        C  0.26538249  0.27323855  0.36810072     0.24400
C577        C  0.22889065  0.26796986  0.36133057    -0.23600
C578        C  0.21137866  0.23784448  0.37481663     0.19300
F579        F  0.17643288  0.23132092  0.36739047    -0.13600
F580        F  0.21170226  0.18615893  0.40929633    -0.15900
F581        F  0.28357603  0.30064744  0.35359758    -0.15900
F582        F  0.31893191  0.25533227  0.39540236    -0.13600
C583        C  0.04453799  0.34799658  0.36251551     0.24400
C584        C  0.04132859  0.38545636  0.36228954    -0.23700
C585        C  0.06137005  0.40491437  0.33833885     0.19300
C586        C  0.08325908  0.38736699  0.31474431     0.24400
C587        C  0.08592026  0.35013307  0.31478883    -0.23600
C588        C  0.06695941  0.33064180  0.33923736     0.19300
F589        F  0.07073952  0.29484794  0.34101958    -0.13600
F590        F  0.02595686  0.32801902  0.38531565    -0.15900
F591        F  0.10279425  0.40688582  0.29232714    -0.15900
F592        F  0.05901321  0.44085059  0.33695351    -0.13600
C593        C  0.15894918  0.42993752  0.19659367     0.24400
C594        C  0.13976080  0.39896616  0.20410431    -0.23700
C595        C  0.10468402  0.39479377  0.19170834     0.19300
C596        C  0.08864001  0.42156006  0.17263008     0.24400
C597        C  0.10745808  0.45310737  0.16533374    -0.23600
C598        C  0.14319607  0.45665946  0.17710414     0.19300
F599        F  0.16258668  0.48664869  0.17118202    -0.13600
F600        F  0.19295580  0.43426506  0.20804554    -0.15900
F601        F  0.05421996  0.41703456  0.16239903    -0.15900
F602        F  0.08532733  0.36518773  0.19929790    -0.13600
C603        C  0.70586668  0.10037607  0.29410873     0.24400
C604        C  0.70479291  0.13787057  0.29036470    -0.23700
C605        C  0.67669764  0.15663960  0.30602085     0.19300
C606        C  0.65145494  0.13876128  0.32600657     0.24400
C607        C  0.65351780  0.10181762  0.33056748    -0.23600
C608        C  0.68043847  0.08264741  0.31413802     0.19300
F609        F  0.68214461  0.04681397  0.31754403    -0.13600
F610        F  0.73225752  0.08074807  0.27951217    -0.15900
F611        F  0.62520807  0.15776694  0.34152143    -0.15900
F612        F  0.67452672  0.19252848  0.30346946    -0.13600
C613        C  0.78515190  0.24267940  0.13560447     0.24400
C614        C  0.76644463  0.23995553  0.16645294    -0.23700
C615        C  0.72955040  0.24901275  0.16694719     0.19300
C616        C  0.71183532  0.25934672  0.13727961     0.24400
C617        C  0.73031067  0.26103653  0.10621028    -0.23600
C618        C  0.76746897  0.25299838  0.10596924     0.19300
F619        F  0.78707585  0.25451514  0.07686220    -0.13600
F620        F  0.82057675  0.23477082  0.13379211    -0.15900
F621        F  0.67659263  0.26796820  0.13918290    -0.15900
F622        F  0.71024771  0.24814432  0.19626365    -0.13600
C623        C  0.78602416  0.25016225  0.37872288     0.24400
C624        C  0.77154487  0.21829301  0.36550761    -0.23700
C625        C  0.73640036  0.20877854  0.37442856     0.19300
C626        C  0.71551549  0.23145254  0.39452781     0.24400
C627        C  0.72965450  0.26373906  0.40699716    -0.23600
C628        C  0.76527395  0.27271140  0.39912499     0.19300
F629        F  0.78062181  0.30226839  0.41268917    -0.13600
F630        F  0.82027885  0.25973016  0.37117562    -0.15900
F631        F  0.68151090  0.22149142  0.40268778    -0.15900
F632        F  0.72171924  0.17825799  0.36244552    -0.13600
C633        C  0.91854684  0.31119363  0.31380589     0.24400
C634        C  0.89747355  0.33116037  0.33627053    -0.23700
C635        C  0.86001258  0.32842353  0.33477667     0.19300
C636        C  0.84362755  0.30655729  0.31071768     0.24400
C637        C  0.86449337  0.28623550  0.28807659    -0.23600
C638        C  0.90226558  0.28840098  0.29023947     0.19300
F639        F  0.92349675  0.26909800  0.26908105    -0.13600
F640        F  0.95478565  0.31480778  0.31389082    -0.15900
F641        F  0.80727691  0.30497042  0.31009382    -0.15900
F642        F  0.83915257  0.34847449  0.35562542    -0.13600
C643        C  0.78467758  0.88762561  0.05770569     0.24400
C644        C  0.79032909  0.85510037  0.04028001    -0.23700
C645        C  0.82406365  0.83920618  0.04220883     0.19300
C646        C  0.85104365  0.85446651  0.06214292     0.24400
C647        C  0.84469479  0.88582910  0.08134391    -0.23600
C648        C  0.81139166  0.90254038  0.07821502     0.19300
F649        F  0.80430550  0.93305005  0.09542387    -0.13600
F650        F  0.75245797  0.90417810  0.05670767    -0.15900
F651        F  0.88302138  0.83747771  0.06348966    -0.15900
F652        F  0.83078800  0.80844470  0.02528493    -0.13600
C653        C  0.88369969  0.77246552  0.20206438     0.24400
C654        C  0.87236505  0.78123023  0.23524802    -0.23700
C655        C  0.88416423  0.81296064  0.24999666     0.19300
C656        C  0.90496878  0.83678955  0.23097561     0.24400
C657        C  0.91360010  0.82960192  0.19662669    -0.23600
C658        C  0.90369505  0.79673268  0.18265952     0.19300
F659        F  0.91035614  0.78956072  0.14943329    -0.13600
F660        F  0.87371462  0.74102945  0.18786297    -0.15900
F661        F  0.91428348  0.86842087  0.24519366    -0.15900
F662        F  0.87505623  0.82111361  0.28250392    -0.13600
C663        C  0.83998944  0.03767883  0.16702838     0.24400
C664        C  0.87533417  0.03994307  0.15364084    -0.23700
C665        C  0.89404728  0.07219425  0.15698164     0.19300
C666        C  0.87929757  0.10007470  0.17604313     0.24400
C667        C  0.84594281  0.09598445  0.19261821    -0.23600
C668        C  0.82584141  0.06513505  0.18700720     0.19300
F669        F  0.79295249  0.06123932  0.20151058    -0.13600
F670        F  0.82022083  0.00752469  0.16318243    -0.15900
F671        F  0.89901251  0.13011470  0.18066250    -0.15900
F672        F  0.92804175  0.07553482  0.14493292    -0.13600
C673        C  0.15333789  0.68631781  0.20368659     0.24400
C674        C  0.13573071  0.70103247  0.23211634    -0.23700
C675        C  0.09907132  0.69331254  0.23712679     0.19300
C676        C  0.08062503  0.67117276  0.21442505     0.24400
C677        C  0.09797577  0.65765658  0.18547730    -0.23600
C678        C  0.13443883  0.66542759  0.18028694     0.19300
F679        F  0.15228907  0.65101675  0.15348118    -0.13600
F680        F  0.18875298  0.69242777  0.19817662    -0.15900
F681        F  0.04605458  0.66205132  0.22117087    -0.15900
F682        F  0.08129986  0.70657109  0.26450807    -0.13600
C683        C  0.28638799  0.72832146  0.38063967     0.24400
C684        C  0.26990153  0.73215144  0.41253185    -0.23700
C685        C  0.23497417  0.74683986  0.41387707     0.19300
C686        C  0.21699595  0.75688416  0.38427711     0.24400
C687        C  0.23326666  0.75273850  0.35237369    -0.23600
C688        C  0.26837085  0.73841530  0.35096956     0.19300
F689        F  0.28530164  0.73351404  0.32071748    -0.13600
F690        F  0.31958906  0.71395036  0.37797864    -0.15900
F691        F  0.18399220  0.77166977  0.38704000    -0.15900
F692        F  0.21814699  0.75226896  0.44408978    -0.13600
C693        C  0.21038120  0.74340115  0.13701941     0.24400
C694        C  0.22882964  0.77139231  0.15319808    -0.23700
C695        C  0.26620107  0.77364985  0.14941022     0.19300
C696        C  0.28470999  0.74829559  0.13017719     0.24400
C697        C  0.26624686  0.72021267  0.11413995    -0.23600
C698        C  0.22891346  0.71792020  0.11796118     0.19300
F699        F  0.21014242  0.69211164  0.10168549    -0.13600
F700        F  0.17434848  0.74000857  0.14098992    -0.15900
F701        F  0.32075247  0.75169438  0.12618057    -0.15900
F702        F  0.28505401  0.79915762  0.16604433    -0.13600
C703        C  0.04358419  0.85840095  0.16806325     0.24400
C704        C  0.03937899  0.89523096  0.17456554    -0.23700
C705        C  0.05900086  0.91051982  0.20137628     0.19300
C706        C  0.08197704  0.88964077  0.22106175     0.24400
C707        C  0.08590772  0.85307888  0.21441287    -0.23600
C708        C  0.06683174  0.83780785  0.18755752     0.19300
F709        F  0.07146149  0.80298696  0.17961804    -0.13600
F710        F  0.02519888  0.84194373  0.14280002    -0.15900
F711        F  0.10198599  0.90559829  0.24548027    -0.15900
F712        F  0.05689114  0.94587397  0.20792210    -0.13600
C713        C  0.13791035  0.14692874  0.31687565     0.24400
C714        C  0.10315214  0.15136013  0.33038425    -0.23700
C715        C  0.08413624  0.18211379  0.32265380     0.19300
C716        C  0.09899268  0.20745260  0.30060435     0.24400
C717        C  0.13371922  0.20284727  0.28625328    -0.23600
C718        C  0.15318546  0.17248241  0.29534981     0.19300
F719        F  0.18700336  0.16735964  0.28349611    -0.13600
F720        F  0.15721134  0.11760629  0.32467416    -0.15900
F721        F  0.07912084  0.23657718  0.29350934    -0.15900
F722        F  0.05063013  0.18700652  0.33540754    -0.13600
C723        C  0.16934088  0.15054707  0.47171536     0.24400
C724        C  0.20145406  0.13286672  0.47894865    -0.23700
C725        C  0.20506925  0.09685713  0.46872696     0.19300
C726        C  0.17834604  0.08002620  0.44974294     0.24400
C727        C  0.14716962  0.09827987  0.44154964    -0.23600
C728        C  0.14232171  0.13325636  0.45345673     0.19300
F729        F  0.11193092  0.15128542  0.44604594    -0.13600
F730        F  0.16449960  0.18489377  0.48127214    -0.15900
F731        F  0.18293711  0.04592796  0.43930638    -0.15900
F732        F  0.24001074  0.08068145  0.96532490    -0.13600
C733        C  0.98710492  0.98034726  0.47945582     0.24400
C734        C  0.00358111  0.01433240  0.47962872    -0.23700
C735        C  0.00381682  0.02895397  0.01343555     0.19300
C736        C  0.99288910  0.01199414  0.04343641     0.24400
C737        C  0.98288646  0.97556693  0.04357028    -0.23600
C738        C  0.98344230  0.95695619  0.01270880     0.19300
F739        F  0.97409386  0.92206379  0.01153367    -0.13600
F740        F  0.97935179  0.96368431  0.44972583    -0.15900
F741        F  0.99193113  0.03161744  0.07242273    -0.15900
F742        F  0.01372034  0.06368836  0.01478821    -0.13600
C743        C  0.98932553  0.95529033  0.25791650     0.24400
C744        C  0.96095300  0.97619988  0.24592936    -0.23700
C745        C  0.96167704  0.01295008  0.25251530     0.19300
C746        C  0.99123689  0.02888635  0.26771687     0.24400
C747        C  0.01936809  0.00828831  0.28046295    -0.23600
C748        C  0.01793427  0.97114712  0.27578290     0.19300
F749        F  0.04333766  0.95019574  0.28981334    -0.13600
F750        F  0.99008152  0.91993475  0.25104447    -0.15900
F751        F  0.99099303  0.06460179  0.27287851    -0.15900
F752        F  0.93494773  0.03400950  0.24091695    -0.13600
C753        C  0.93439322  0.08325115  0.33015996     0.24400
C754        C  0.95369102  0.10321038  0.35426209    -0.23700
C755        C  0.95127047  0.14069906  0.35330853     0.19300
C756        C  0.93002125  0.15760965  0.32914469     0.24400
C757        C  0.91106584  0.13765371  0.30511729    -0.23600
C758        C  0.91333628  0.10037035  0.30583762     0.19300
F759        F  0.89371077  0.08048365  0.28384225    -0.13600
F760        F  0.93631468  0.04725399  0.32966716    -0.15900
F761        F  0.92659885  0.19350164  0.33017279    -0.15900
F762        F  0.96907975  0.16115682  0.37621085    -0.13600
C763        C  0.11168310  0.88720492  0.33757148     0.24400
C764        C  0.14432688  0.89402870  0.32047288    -0.23700
C765        C  0.15938545  0.92798745  0.32201573     0.19300
C766        C  0.14209745  0.95493520  0.34014711     0.24400
C767        C  0.10842743  0.94877031  0.35610208    -0.23600
C768        C  0.09358250  0.91449425  0.35473079     0.19300
F769        F  0.06129522  0.90755707  0.36937676    -0.13600
F770        F  0.09626498  0.85448628  0.33605224    -0.15900
F771        F  0.15761769  0.98764008  0.34026344    -0.15900
F772        F  0.19073218  0.93516781  0.30567949    -0.13600
C773        C  0.40171562  0.78832290  0.03960956     0.24400
C774        C  0.36388775  0.78577160  0.03882039    -0.23700
C775        C  0.34380157  0.80471407  0.06310023     0.19300
C776        C  0.36102024  0.82579151  0.08734079     0.24400
C777        C  0.39850466  0.82909650  0.08734666    -0.23600
C778        C  0.41877080  0.81028270  0.06335419     0.19300
F779        F  0.45495050  0.81436741  0.06207218    -0.13600
F780        F  0.42224282  0.77015992  0.01693407    -0.15900
F781        F  0.34090557  0.84477630  0.10970935    -0.15900
F782        F  0.30748342  0.80258703  0.06378265    -0.13600
C783        C  0.49440576  0.96043414  0.25722815     0.24400
C784        C  0.48827608  0.98007131  0.22765893    -0.23700
C785        C  0.49430933  0.01729347  0.22869162     0.19300
C786        C  0.50596136  0.03421342  0.25850388     0.24400
C787        C  0.51197931  0.01451383  0.28809658    -0.23600
C788        C  0.50605365  0.97724771  0.28689210     0.19300
F789        F  0.51120021  0.95652196  0.31457317    -0.13600
F790        F  0.48900450  0.92473198  0.25774366    -0.15900
F791        F  0.51138839  0.06989887  0.25822316    -0.15900
F792        F  0.48920681  0.03764417  0.20076840    -0.13600
C793        C  0.48849629  0.02638800  0.00001433     0.24400
C794        C  0.52000247  0.01278511  0.48731663    -0.23700
C795        C  0.52829124  0.97762388  0.49556227     0.19300
C796        C  0.50373700  0.95525208  0.01299792     0.24400
C797        C  0.47283483  0.97078979  0.02719246    -0.23600
C798        C  0.46513979  0.00636371  0.02011685     0.19300
F799        F  0.43631091  0.02240092  0.03458178    -0.13600
F800        F  0.48019839  0.06068691  0.99312964    -0.15900
F801        F  0.51370888  0.92398310  0.52408510    -0.15900
F802        F  0.55851375  0.96217527  0.48324052    -0.13600
C803        C  0.33674518  0.05573716  0.06364987     0.24400
C804        C  0.35062287  0.09029845  0.06522574    -0.23700
C805        C  0.38143289  0.09689011  0.08502700     0.19300
C806        C  0.39878023  0.06913446  0.10184934     0.24400
C807        C  0.38509441  0.03443122  0.10008937    -0.23600
C808        C  0.35342109  0.02817217  0.08125814     0.19300
F809        F  0.33948419  0.99491670  0.07826809    -0.13600
F810        F  0.30703812  0.04862005  0.04501541    -0.15900
F811        F  0.42915606  0.07612535  0.11953027    -0.15900
F812        F  0.39585943  0.13003178  0.08676547    -0.13600
C813        C  0.35193221  0.85461573  0.20443971     0.24400
C814        C  0.34742903  0.88956644  0.19281565    -0.23700
C815        C  0.31636192  0.90814244  0.20122445     0.19300
C816        C  0.28933301  0.89152981  0.22017034     0.24400
C817        C  0.29270583  0.85553611  0.23023509    -0.23600
C818        C  0.32477488  0.83765584  0.22286571     0.19300
F819        F  0.32932719  0.80330854  0.23223098    -0.13600
F820        F  0.38210824  0.83627504  0.19654014    -0.15900
F821        F  0.25910422  0.91027945  0.22691093    -0.15900
F822        F  0.31206658  0.94219918  0.19081290    -0.13600
C823        C  0.58051107  0.88503639  0.05785954     0.24400
C824        C  0.58542393  0.84817416  0.05992746    -0.23700
C825        C  0.56963632  0.82934481  0.08676646     0.19300
C826        C  0.54800482  0.84691728  0.11051198     0.24400
C827        C  0.54291393  0.88402079  0.10854452    -0.23600
C828        C  0.55990158  0.90291737  0.08218489     0.19300
F829        F  0.55599711  0.93860250  0.07937847    -0.13600
F830        F  0.59725711  0.90402208  0.03312472    -0.15900
F831        F  0.53240126  0.82765258  0.13571097    -0.15900
F832        F  0.57616969  0.79412272  0.09056018    -0.13600
O833        O  0.38757772  0.98079135  0.62386838    -0.81000
C834        C  0.51176360  0.90128552  0.62753769     0.98400
O835        O  0.51227572  0.93438962  0.63402672    -0.70100
O836        O  0.47927320  0.95231543  0.58095246    -0.73700
Al837      Al  0.47241956  0.96620743  0.62520851     1.49000
C838        C  0.45677787  0.95824856  0.55846571     0.93600
O839        O  0.40815031  0.89251703  0.58544004    -0.79900
O840        O  0.40373459  0.91107095  0.68455199    -0.73500
Al841      Al  0.39952221  0.93636882  0.60570167     1.90100
O842        O  0.41821031  0.86310506  0.63255428    -0.72500
O843        O  0.47205287  0.92840192  0.69255288    -0.72400
O844        O  0.48504298  0.88314716  0.63626981    -0.78000
O845        O  0.46862083  0.98163868  0.67006389    -0.76200
O846        O  0.43852977  0.93397277  0.63057281    -1.12400
O847        O  0.43960968  0.00518566  0.61295097    -0.71600
C848        C  0.40557533  0.00752738  0.61507093     0.99200
C849        C  0.40856870  0.86387167  0.60156002     0.95600
Al850      Al  0.44462889  0.89898809  0.65963442     1.55600
O851        O  0.42337000  0.95748226  0.56535098    -0.76200
C852        C  0.47490119  0.96222239  0.69521640     0.99700
C853        C  0.37304862  0.90873607  0.67166056     0.94600
O854        O  0.36825161  0.91552006  0.64036144    -0.81500
O855        O  0.10325739  0.00775974  0.87527740    -0.81000
C856        C  0.97891863  0.08626349  0.88283035     0.98400
O857        O  0.97850738  0.05322842  0.88983942    -0.70100
O858        O  0.00939980  0.03224549  0.83684482    -0.73700
Al859      Al  0.01841359  0.02090064  0.88072653     1.49000
C860        C  0.03063853  0.02601119  0.81321529     0.93600
O861        O  0.08002797  0.09453758  0.83637526    -0.79900
O862        O  0.08853646  0.07751929  0.93566293    -0.73500
Al863      Al  0.08993293  0.05115120  0.85685259     1.90100
O864        O  0.07316033  0.12459105  0.88390213    -0.72500
O865        O  0.02026036  0.06113075  0.94698830    -0.72400
O866        O  0.00581333  0.10475161  0.89041302    -0.78000
O867        O  0.02422245  0.00740633  0.92567514    -0.76200
O868        O  0.05201285  0.05376244  0.88354857    -1.12400
O869        O  0.05132063  0.98181419  0.86788810    -0.71600
C870        C  0.08548022  0.98067498  0.86739737     0.99200
C871        C  0.08216623  0.12319883  0.85261974     0.95600
Al872      Al  0.04695959  0.08942918  0.91239990     1.55600
O873        O  0.06440591  0.02827448  0.81778621    -0.76200
C874        C  0.01746171  0.02739896  0.95042850     0.99700
C875        C  0.11867281  0.08027103  0.92142086     0.94600
O876        O  0.12258010  0.07316542  0.88994250    -0.81500
O877        O  0.22846853  0.85442582  0.74636350    -0.81000
C878        C  0.15411781  0.72899215  0.75679407     0.98400
O879        O  0.18718809  0.72967743  0.76472647    -0.70100
O880        O  0.20660154  0.75881191  0.71007030    -0.73700
Al881      Al  0.21855376  0.76974153  0.75417836     1.49000
C882        C  0.21147489  0.77985430  0.68618964     0.93600
O883        O  0.14033462  0.82510820  0.71139176    -0.79900
O884        O  0.16130678  0.83794147  0.80999000    -0.73500
Al885      Al  0.18462111  0.83831693  0.73000492     1.90100
O886        O  0.11243604  0.82077335  0.76031950    -0.72500
O887        O  0.17929614  0.77097940  0.82110683    -0.72400
O888        O  0.13441654  0.75445556  0.76546945    -0.78000
O889        O  0.23301362  0.77737847  0.79901400    -0.76200
O890        O  0.18444485  0.80168963  0.75743531    -1.12400
O891        O  0.25645715  0.80372674  0.74046240    -0.71600
C892        C  0.25658489  0.83759989  0.73978648     0.99200
C893        C  0.11233478  0.82869320  0.72888648     0.95600
Al894      Al  0.14935826  0.79597085  0.78734066     1.55600
O895        O  0.20748723  0.81317360  0.69083866    -0.76200
C896        C  0.21341115  0.77074590  0.82426243     0.99700
C897        C  0.15696869  0.86736601  0.79551077     0.94600
O898        O  0.16259338  0.87065236  0.76362998    -0.81500
O899        O  0.86912209  0.93258583  0.62051404    -0.81000
C900        C  0.01432594  0.91634253  0.65348108     0.98400
O901        O  0.00048728  0.90361498  0.62702987    -0.70100
O902        O  0.94363254  0.86822663  0.65167955    -0.73700
Al903      Al  0.95135983  0.90269954  0.61497941     1.49000
C904        C  0.91511973  0.86660269  0.66942079     0.93600
O905        O  0.91982026  0.94679003  0.70587422    -0.79900
O906        O  0.93424147  0.01156470  0.62877792    -0.73500
Al907      Al  0.89650668  0.94030098  0.66183861     1.90100
O908        O  0.95616318  0.98868722  0.68830465    -0.72500
O909        O  0.98863137  0.97461768  0.60083730    -0.72400
O910        O  0.00419394  0.94638613  0.66422709    -0.78000
O911        O  0.95911898  0.93222726  0.57539941    -0.76200
O912        O  0.93838060  0.94006453  0.64014928    -1.12400
O913        O  0.90585585  0.89370600  0.59790415    -0.71600
C914        C  0.87552081  0.90784588  0.59927154     0.99200
C915        C  0.94240284  0.97130784  0.71184701     0.95600
Al916      Al  0.96852460  0.97690096  0.64473217     1.55600
O917        O  0.89458627  0.89258964  0.67135953    -0.76200
C918        C  0.97736841  0.96067530  0.57395024     0.99700
C919        C  0.90378766  0.01477210  0.64326504     0.94600
O920        O  0.88890190  0.98869570  0.65730742    -0.81500
O921        O  0.83006821  0.11684847  0.75246362    -0.81000
C922        C  0.84503972  0.25945758  0.76465997     0.98400
O923        O  0.86363413  0.23267110  0.75788158    -0.70100
O924        O  0.88248527  0.16571728  0.76301275    -0.73700
Al925      Al  0.84821990  0.19265753  0.73423024     1.49000
C926        C  0.87966717  0.15602505  0.79399449     0.93600
O927        O  0.78365041  0.17315804  0.82647491    -0.79900
O928        O  0.73893629  0.18851059  0.77734730    -0.73500
Al929      Al  0.80716351  0.14856389  0.78677971     1.90100
O930        O  0.79084114  0.22829900  0.81028010    -0.72500
O931        O  0.76597456  0.21541992  0.72074225    -0.72400
O932        O  0.81204419  0.25975269  0.75682757    -0.78000
O933        O  0.82063970  0.21983674  0.69995057    -0.76200
O934        O  0.81151485  0.18704939  0.76201462    -1.12400
O935        O  0.83594852  0.15280628  0.70889115    -0.71600
C936        C  0.83760897  0.12224638  0.72118556     0.99200
C937        C  0.78246982  0.20653115  0.83278227     0.95600
Al938      Al  0.77911763  0.22060456  0.76564347     1.55600
O939        O  0.85003901  0.15703309  0.80900931    -0.76200
C940        C  0.78659350  0.22136470  0.69609123     0.99700
C941        C  0.73669620  0.15477140  0.77571430     0.94600
O942        O  0.76346116  0.13706579  0.76654856    -0.81500
O943        O  0.16039502  0.36872307  0.75320813    -0.81000
C944        C  0.15173587  0.22625459  0.76596468     0.98400
O945        O  0.13270631  0.25183547  0.75690987    -0.70100
O946        O  0.11053981  0.31728201  0.76112507    -0.73700
Al947      Al  0.14695345  0.29239372  0.73344162     1.49000
C948        C  0.11153731  0.32634825  0.79229075     0.93600
O949        O  0.20712989  0.31624519  0.82732815    -0.79900
O950        O  0.25495294  0.30286781  0.77753865    -0.73500
Al951      Al  0.18371309  0.33854793  0.78745111     1.90100
O952        O  0.20467066  0.26073070  0.81121292    -0.72500
O953        O  0.23043449  0.27179733  0.72133143    -0.72400
O954        O  0.18520086  0.22678775  0.75940188    -0.78000
O955        O  0.17655231  0.26625677  0.69992406    -0.76200
O956        O  0.18268762  0.29999346  0.76200989    -1.12400
O957        O  0.15724409  0.33359881  0.70843160    -0.71600
C958        C  0.15375228  0.36383689  0.72177846     0.99200
C959        C  0.20979218  0.28324558  0.83386510     0.95600
Al960      Al  0.21652458  0.26799467  0.76658187     1.55600
O961        O  0.14049125  0.32650570  0.80820929    -0.76200
C962        C  0.21059837  0.26461007  0.69653688     0.99700
C963        C  0.25555289  0.33678682  0.77663508     0.94600
O964        O  0.22762309  0.35347424  0.76910105    -0.81500
O965        O  0.13081147  0.56888511  0.62531462    -0.81000
C966        C  0.98782917  0.59267064  0.64182617     0.98400
O967        O  0.01558531  0.60938466  0.63353991    -0.70100
O968        O  0.08326968  0.62487822  0.63724357    -0.73700
Al969      Al  0.05463598  0.59176500  0.60918135     1.49000
C970        C  0.09500353  0.62191917  0.66745117     0.93600
O971        O  0.07392837  0.52826181  0.70107102    -0.79900
O972        O  0.05273025  0.48398937  0.65353889    -0.73500
Al973      Al  0.09875918  0.54882787  0.66036639     1.90100
O974        O  0.01846685  0.53953010  0.68714983    -0.72500
O975        O  0.02492680  0.51110788  0.59773067    -0.72400
O976        O  0.98527609  0.55989389  0.63469012    -0.78000
O977        O  0.02542213  0.56479921  0.57579976    -0.76200
O978        O  0.05915773  0.55544728  0.63697363    -1.12400
O979        O  0.09409110  0.57844823  0.58292060    -0.71600
C980        C  0.12523120  0.57833189  0.59476674     0.99200
C981        C  0.04063157  0.52999577  0.70878050     0.95600
Al982      Al  0.02302047  0.52568965  0.64256417     1.55600
O983        O  0.09517057  0.59240437  0.68213960    -0.76200
C984        C  0.02066350  0.53120736  0.57268441     0.99700
C985        C  0.08622793  0.47860706  0.64987879     0.94600
O986        O  0.10603277  0.50391531  0.64049384    -0.81500
O987        O  0.88978358  0.48161978  0.87436872    -0.81000
C988        C  0.01169957  0.39827764  0.87889577     0.98400
O989        O  0.01307656  0.43147206  0.88480386    -0.70100
O990        O  0.98111543  0.45101524  0.83149686    -0.73700
Al991      Al  0.97424613  0.46456208  0.87602884     1.49000
C992        C  0.95918787  0.45886794  0.80904260     0.93600
O993        O  0.90891375  0.39378299  0.83468916    -0.79900
O994        O  0.90270244  0.41076120  0.93391859    -0.73500
Al995      Al  0.90080672  0.43723088  0.85547327     1.90100
O996        O  0.91763592  0.36338826  0.88159005    -0.72500
O997        O  0.97100432  0.42598487  0.94335563    -0.72400
O998        O  0.98444116  0.38089233  0.88742330    -0.78000
O999        O  0.97035617  0.47943443  0.92094592    -0.76200
O1000       O  0.93940589  0.43330361  0.88079799    -1.12400
O1001       O  0.94259642  0.50478611  0.86395018    -0.71600
C1002       C  0.90856381  0.50786404  0.86553434     0.99200
C1003       C  0.90849312  0.36497606  0.85054908     0.95600
Al1004     Al  0.94391355  0.39785785  0.90972663     1.55600
O1005       O  0.92570462  0.45885120  0.81568326    -0.76200
C1006       C  0.97456391  0.45964209  0.94623721     0.99700
C1007       C  0.87238568  0.40840679  0.92036264     0.94600
O1008       O  0.86820597  0.41590521  0.88915148    -0.81500
O1009       O  0.33445999  0.61600562  0.50318103    -0.81000
C1010       C  0.34555642  0.75870447  0.51364082     0.98400
O1011       O  0.36394468  0.73223722  0.00832301    -0.70100
O1012       O  0.38571380  0.66696145  0.51094858    -0.73700
Al1013     Al  0.34748153  0.69298046  0.98419677     1.49000
C1014       C  0.38376207  0.65751819  0.54196625     0.93600
O1015       O  0.28711578  0.67079496  0.57575496    -0.79900
O1016       O  0.24139938  0.68435546  0.52550179    -0.73500
Al1017     Al  0.31117887  0.64719592  0.53644707     1.90100
O1018       O  0.29162174  0.72602324  0.55949453    -0.72500
O1019       O  0.26560543  0.71917027  0.97193953    -0.72400
O1020       O  0.31237850  0.75823639  0.50653161    -0.78000
O1021       O  0.32007201  0.72118753  0.95032025    -0.76200
O1022       O  0.31389816  0.68531632  0.51067929    -1.12400
O1023       O  0.33513483  0.65331878  0.95835079    -0.71600
C1024       C  0.33608328  0.62265368  0.97068292     0.99200
C1025       C  0.28475316  0.70393487  0.58211002     0.95600
Al1026     Al  0.28053116  0.71801326  0.51455147     1.55600
O1027       O  0.35440154  0.65795600  0.55765708    -0.76200
C1028       C  0.28606595  0.72446431  0.94700639     0.99700
C1029       C  0.23970844  0.65051411  0.52405371     0.94600
O1030       O  0.26753462  0.63319960  0.51726720    -0.81500
O1031       O  0.73176277  0.35443094  0.00030008    -0.81000
C1032       C  0.65335384  0.22725927  0.50851271     0.98400
O1033       O  0.68677692  0.22760012  0.51474655    -0.70100
O1034       O  0.70230011  0.26210001  0.95967403    -0.73700
Al1035     Al  0.71594516  0.27052894  0.00382417     1.49000
C1036       C  0.70930099  0.28354301  0.93653960     0.93600
O1037       O  0.64301048  0.33309846  0.96238794    -0.79900
O1038       O  0.66148024  0.33636586  0.56111726    -0.73500
Al1039     Al  0.68710313  0.34220270  0.98236365     1.90100
O1040       O  0.61337824  0.31874227  0.50993866    -0.72500
O1041       O  0.67955570  0.26968927  0.57194119    -0.72400
O1042       O  0.63460605  0.25339391  0.51683116    -0.78000
O1043       O  0.73326469  0.27381753  0.54910038    -0.76200
O1044       O  0.68508551  0.30012734  0.50857657    -1.12400
O1045       O  0.75572730  0.30256269  0.99058440    -0.71600
C1046       C  0.75861204  0.33631444  0.99211520     0.99200
C1047       C  0.61410517  0.33401497  0.97871681     0.95600
Al1048     Al  0.64978965  0.29460620  0.53814274     1.55600
O1049       O  0.70865242  0.31693183  0.94251902    -0.76200
C1050       C  0.71368057  0.26807579  0.57450914     0.99700
C1051       C  0.65759411  0.36588819  0.54691690     0.94600
O1052       O  0.66359118  0.36950162  0.51520110    -0.81500
O1053       O  0.36672211  0.41733403  0.87678398    -0.81000
C1054       C  0.51070760  0.40099931  0.89252400     0.98400
O1055       O  0.48378326  0.38292145  0.88435077    -0.70100
O1056       O  0.41627155  0.36432498  0.88911899    -0.73700
Al1057     Al  0.44381960  0.39802255  0.86003276     1.49000
C1058       C  0.40402902  0.36756829  0.91937327     0.93600
O1059       O  0.42104073  0.46335103  0.95107537    -0.79900
O1060       O  0.43997956  0.50681430  0.90205241    -0.73500
Al1061     Al  0.39770242  0.43988574  0.91092843     1.90100
O1062       O  0.47723556  0.45502613  0.93715584    -0.72500
O1063       O  0.47008441  0.47971709  0.84703697    -0.72400
O1064       O  0.51176869  0.43382466  0.88531332    -0.78000
O1065       O  0.47217343  0.42574486  0.82562951    -0.76200
O1066       O  0.43766667  0.43468439  0.88739329    -1.12400
O1067       O  0.40338528  0.40859202  0.83386329    -0.71600
C1068       C  0.37214889  0.40801862  0.84605417     0.99200
C1069       C  0.45430734  0.46368162  0.95871959     0.95600
Al1070     Al  0.47219058  0.46655719  0.89215882     1.55600
O1071       O  0.40348833  0.39733625  0.93383608    -0.76200
C1072       C  0.47577717  0.45951110  0.82220116     0.99700
C1073       C  0.40618138  0.50961581  0.89850754     0.94600
O1074       O  0.38831139  0.48297431  0.88943595    -0.81500
O1075       O  0.26052125  0.13400688  0.00031304    -0.81000
C1076       C  0.34051772  0.25833127  0.50098140     0.98400
O1077       O  0.30739737  0.25900085  0.50853643    -0.70100
O1078       O  0.28679682  0.22639203  0.95876195    -0.73700
Al1079     Al  0.27429687  0.21812480  0.00309386     1.49000
C1080       C  0.27954797  0.20478278  0.93580800     0.93600
O1081       O  0.34759565  0.15677581  0.95912757    -0.79900
O1082       O  0.33275155  0.15146556  0.55773761    -0.73500
Al1083     Al  0.30426359  0.14694124  0.98068191     1.90100
O1084       O  0.37911925  0.16665775  0.50433343    -0.72500
O1085       O  0.31491446  0.21847335  0.56705598    -0.72400
O1086       O  0.35897066  0.23233425  0.50980028    -0.79600
O1087       O  0.26090593  0.21532479  0.54537991    -0.76200
O1088       O  0.30774993  0.18597038  0.50467960    -1.12400
O1089       O  0.23496917  0.18508971  0.99093543    -0.71600
C1090       C  0.23328328  0.15126605  0.99211272     0.99200
C1091       C  0.37688385  0.15632725  0.97453840     0.95600
Al1092     Al  0.34382807  0.19219807  0.53293380     1.55600
O1093       O  0.28098265  0.17141345  0.94148153    -0.76200
C1094       C  0.28085744  0.22073196  0.57046395     0.99700
C1095       C  0.33491488  0.12114250  0.54449935     0.94600
O1096       O  0.32689235  0.11620165  0.51343165    -0.81500
O1097       O  0.62639443  0.07660090  0.87915463    -0.81000
C1098       C  0.48191229  0.08938481  0.88849414     0.98400
O1099       O  0.50891441  0.10807899  0.88188362    -0.70100
O1100       O  0.57562567  0.12816222  0.88909059    -0.73700
Al1101     Al  0.55021240  0.09388506  0.85915014     1.49000
C1102       C  0.58557709  0.12535920  0.91992314     0.93600
O1103       O  0.56932614  0.02937131  0.95032518    -0.79900
O1104       O  0.55492229  0.98481338  0.89997791    -0.73500
Al1105     Al  0.59425458  0.05330153  0.91183517     1.90100
O1106       O  0.51373926  0.03514972  0.93376073    -0.72500
O1107       O  0.52767949  0.01195690  0.84348963    -0.72400
O1108       O  0.48198923  0.05648126  0.88097689    -0.78000
O1109       O  0.52434894  0.06631477  0.82363517    -0.76200
O1110       O  0.55575270  0.05722420  0.88639316    -1.12400
O1111       O  0.59164034  0.08354684  0.83480598    -0.71600
C1112       C  0.62198945  0.08541219  0.84827804     0.99200
C1113       C  0.53572111  0.02755150  0.95625758     0.95600
Al1114     Al  0.52207812  0.02438396  0.88894136     1.55600
O1115       O  0.58520257  0.09577748  0.93448870    -0.76200
C1116       C  0.52262150  0.03264379  0.81903373     0.99700
C1117       C  0.58905146  0.98294924  0.89887376     0.94600
O1118       O  0.60683989  0.01018423  0.89121748    -0.81500
O1119       O  0.66840733  0.87410304  0.50261486    -0.81000
C1120       C  0.65752228  0.73038370  0.51563306     0.98400
O1121       O  0.63242704  0.75787911  0.00472586    -0.70100
O1122       O  0.61691498  0.82273323  0.51363521    -0.73700
Al1123     Al  0.64861228  0.79795339  0.98166694     1.49000
C1124       C  0.61952286  0.83425814  0.54399013     0.93600
O1125       O  0.71639305  0.82121836  0.57580676    -0.79900
O1126       O  0.76114339  0.80621943  0.52510867    -0.73500
Al1127     Al  0.69201892  0.84407834  0.53636502     1.90100
O1128       O  0.71141709  0.76552118  0.56030570    -0.72500
O1129       O  0.73107678  0.77405899  0.96910199    -0.72400
O1130       O  0.69073670  0.73147687  0.50835777    -0.78000
O1131       O  0.67691727  0.77110781  0.94750890    -0.76200
O1132       O  0.68862358  0.80489383  0.51181439    -1.12400
O1133       O  0.66080332  0.83876993  0.95724997    -0.71600
C1134       C  0.65868666  0.86901251  0.97077972     0.99200
C1135       C  0.71856667  0.78810480  0.58247724     0.95600
Al1136     Al  0.72215072  0.77244254  0.51530373     1.55600
O1137       O  0.64915260  0.83485668  0.55887656    -0.76200
C1138       C  0.71095511  0.76890657  0.94408649     0.99700
C1139       C  0.76312623  0.83994197  0.52290609     0.94600
O1140       O  0.73551948  0.85720332  0.51578965    -0.81500
O1141       O  0.76905927  0.63761861  0.74608032    -0.81000
C1142       C  0.84694386  0.76360143  0.75591282     0.98400
O1143       O  0.81321664  0.76298125  0.76116515    -0.70100
O1144       O  0.79504446  0.73115055  0.70709660    -0.73700
Al1145     Al  0.78153084  0.72265906  0.75141977     1.49000
C1146       C  0.78925797  0.70934299  0.68393297     0.93600
O1147       O  0.85798568  0.66397327  0.71062893    -0.79900
O1148       O  0.83803562  0.65435804  0.80931805    -0.73500
Al1149     Al  0.81378204  0.65227814  0.72955819     1.90100
O1150       O  0.88641420  0.67161287  0.75887590    -0.72500
O1151       O  0.81926443  0.72165068  0.81926986    -0.72400
O1152       O  0.86560434  0.73757816  0.76448359    -0.78000
O1153       O  0.76591658  0.71739410  0.79614713    -0.76200
O1154       O  0.81473285  0.69005202  0.75608204    -1.12400
O1155       O  0.74287777  0.68891777  0.73815327    -0.71600
C1156       C  0.74175581  0.65501476  0.73808164     0.99200
C1157       C  0.88626405  0.66298932  0.72761594     0.95600
Al1158     Al  0.84965513  0.69622009  0.78601211     1.55600
O1159       O  0.79188771  0.67617698  0.68964675    -0.76200
C1160       C  0.78513436  0.72335077  0.82166250     0.99700
C1161       C  0.84147166  0.62448887  0.79517420     0.94600
O1162       O  0.83516907  0.62066024  0.76356529    -0.81500
O1163       O  0.60733109  0.50640247  0.62666670    -0.81000
C1164       C  0.48693520  0.59013937  0.62862061     0.98400
O1165       O  0.48505791  0.55735059  0.63611028    -0.70100
O1166       O  0.51626693  0.53473206  0.58291610    -0.73700
Al1167     Al  0.52339882  0.52344395  0.62791171     1.49000
C1168       C  0.53800903  0.52508196  0.56064294     0.93600
O1169       O  0.58958897  0.59249029  0.58311506    -0.79900
O1170       O  0.59593007  0.57850605  0.68322264    -0.73500
Al1171     Al  0.59700947  0.54950155  0.60560759     1.90100
O1172       O  0.58176237  0.62445530  0.62957767    -0.72500
O1173       O  0.52749092  0.56412043  0.69450815    -0.72400
O1174       O  0.51426110  0.60761116  0.63677753    -0.78000
O1175       O  0.52745042  0.51019015  0.67309661    -0.76200
O1176       O  0.55854163  0.55474648  0.63115691    -1.12400
O1177       O  0.55477373  0.48267972  0.61706244    -0.71600
C1178       C  0.58873754  0.47965490  0.61916683     0.99200
C1179       C  0.59091080  0.62189410  0.59835034     0.95600
Al1180     Al  0.55474781  0.59110035  0.65924571     1.55600
O1181       O  0.57160475  0.52565487  0.56682341    -0.76200
C1182       C  0.52394482  0.53046642  0.69823624     0.99700
C1183       C  0.62631477  0.58065267  0.66942097     0.94600
O1184       O  0.63007917  0.57215234  0.63821652    -0.81500
C1185       C  0.67612652  0.63971701  0.73257011     0.24400
C1186       C  0.71174029  0.63511826  0.72231774    -0.23700
C1187       C  0.71932956  0.61129864  0.69544929     0.19300
C1188       C  0.69185377  0.59296114  0.67876453     0.24400
C1189       C  0.65609230  0.59724032  0.68902164    -0.23600
C1190       C  0.64857468  0.62057338  0.71651046     0.19300
F1191       F  0.61436398  0.62606311  0.72713975    -0.13600
F1192       F  0.66802715  0.66251278  0.75822993    -0.15900
F1193       F  0.70032924  0.57127047  0.65232667    -0.15900
F1194       F  0.75346678  0.60677933  0.68422987    -0.13600
C1195       C  0.58722975  0.66908677  0.55431774     0.24400
C1196       C  0.60689595  0.65189005  0.57954558    -0.23700
C1197       C  0.64400427  0.65822600  0.58170068     0.19300
C1198       C  0.66106603  0.68201569  0.55942715     0.24400
C1199       C  0.64117796  0.70035298  0.53482743    -0.23600
C1200       C  0.60399839  0.69353034  0.53256937     0.19300
F1201       F  0.58382792  0.71037148  0.50905523    -0.13600
F1202       F  0.55180098  0.66179556  0.55046946    -0.15900
F1203       F  0.69682318  0.68785080  0.56268503    -0.15900
F1204       F  0.66393003  0.64057315  0.60486513    -0.13600
C1205       C  0.76437286  0.76969115  0.90516704     0.24400
C1206       C  0.72861335  0.75883755  0.91155639    -0.23700
C1207       C  0.71197471  0.73575509  0.88839707     0.19300
C1208       C  0.73075135  0.72347086  0.85976148     0.24400
C1209       C  0.76665367  0.73405142  0.85360437    -0.23600
C1210       C  0.78314929  0.75734659  0.87664724     0.19300
F1211       F  0.81710378  0.76918168  0.87105045    -0.13600
F1212       F  0.78122781  0.79274798  0.92643633    -0.15900
F1213       F  0.71388963  0.70059548  0.83833136    -0.15900
F1214       F  0.67801760  0.72398082  0.89407440    -0.13600
C1215       C  0.77113741  0.77859857  0.61904507     0.24400
C1216       C  0.73444670  0.77315845  0.61326294    -0.23700
C1217       C  0.71753679  0.74325522  0.62778242     0.19300
C1218       C  0.73685016  0.71931619  0.64755577     0.24400
C1219       C  0.77356404  0.72468984  0.65325023    -0.23600
C1220       C  0.79055968  0.75441990  0.63855453     0.19300
F1221       F  0.82603770  0.76028759  0.64376776    -0.13600
F1222       F  0.78859536  0.80619710  0.60421756    -0.15900
F1223       F  0.71922669  0.69191877  0.66262716    -0.15900
F1224       F  0.68233254  0.73663801  0.62166411    -0.13600
C1225       C  0.64418449  0.95598977  0.92485735     0.24400
C1226       C  0.60866665  0.95171394  0.91261777    -0.23700
C1227       C  0.59096331  0.91928083  0.91863557     0.19300
C1228       C  0.60777782  0.89241972  0.93712806     0.24400
C1229       C  0.64234543  0.89758961  0.95059941    -0.23600
C1230       C  0.66055147  0.92933810  0.94398839     0.19300
F1231       F  0.69423913  0.93450983  0.95595891    -0.13600
F1232       F  0.66274679  0.98666200  0.91983955    -0.15900
F1233       F  0.58960514  0.86170245  0.94310178    -0.15900
F1234       F  0.55695254  0.91390358  0.90759666    -0.13600
C1235       C  0.44925849  0.14361730  0.90892217     0.24400
C1236       C  0.45249857  0.10619374  0.90829432    -0.23700
C1237       C  0.43188832  0.08608917  0.93131854     0.19300
C1238       C  0.40953884  0.10302164  0.95499323     0.24400
C1239       C  0.40703588  0.14029405  0.95598057    -0.23600
C1240       C  0.42643202  0.16037189  0.93226589     0.19300
F1241       F  0.42243219  0.19616452  0.93104685    -0.13600
F1242       F  0.46803799  0.16411152  0.88670263    -0.15900
F1243       F  0.38925804  0.08289275  0.97631431    -0.15900
F1244       F  0.43401461  0.05010060  0.93162708    -0.13600
C1245       C  0.48138847  0.51379519  0.78495756     0.24400
C1246       C  0.48791880  0.47704612  0.78999258    -0.23700
C1247       C  0.50847448  0.45901837  0.76554802     0.19300
C1248       C  0.52141129  0.47688822  0.73665112     0.24400
C1249       C  0.51399641  0.51336350  0.73123255    -0.23600
C1250       C  0.49434509  0.53161859  0.75611556     0.19300
F1251       F  0.48656036  0.56653572  0.75210260    -0.13600
F1252       F  0.46184057  0.53274180  0.80781315    -0.15900
F1253       F  0.54169966  0.45837100  0.71405029    -0.15900
F1254       F  0.51699337  0.42433372  0.76998698    -0.13600
C1255       C  0.50351661  0.45203466  0.50487493     0.24400
C1256       C  0.46941948  0.47910383  0.98987144    -0.23700
C1257       C  0.46429997  0.51535928  0.99660284     0.19300
C1258       C  0.48847079  0.53399422  0.01723586     0.24400
C1259       C  0.52150214  0.50809430  0.53077591    -0.23600
C1260       C  0.52760885  0.47189175  0.52455776     0.19300
F1261       F  0.55595177  0.45534352  0.53883912    -0.13600
F1262       F  0.51009076  0.41705761  0.49925314    -0.15900
F1263       F  0.48216603  0.56874018  0.02441598    -0.15900
F1264       F  0.43709378  0.53318614  0.98170493    -0.13600
C1265       C  0.35207362  0.34227442  0.95121348     0.24400
C1266       C  0.38706800  0.33790247  0.93814711    -0.23700
C1267       C  0.40656199  0.30792060  0.94741589     0.19300
C1268       C  0.39156786  0.28283649  0.96967817     0.24400
C1269       C  0.35636745  0.28705829  0.98302111    -0.23600
C1270       C  0.33674375  0.31702703  0.97306485     0.19300
F1271       F  0.30073996  0.31027340  0.46348618    -0.13600
F1272       F  0.33265262  0.37133969  0.94281690    -0.15900
F1273       F  0.41175674  0.25428782  0.97794485    -0.15900
F1274       F  0.44070196  0.30365533  0.93607448    -0.13600
C1275       C  0.56331185  0.32973635  0.93840855     0.24400
C1276       C  0.58373266  0.35008656  0.96104991    -0.23700
C1277       C  0.58213662  0.38734784  0.95936122     0.19300
C1278       C  0.55997470  0.40409082  0.93579261     0.24400
C1279       C  0.53874331  0.38380281  0.91343889    -0.23600
C1280       C  0.54072633  0.34632493  0.91508690     0.19300
F1281       F  0.52123092  0.32559259  0.89369712    -0.13600
F1282       F  0.56631346  0.29380245  0.93802128    -0.15900
F1283       F  0.55898002  0.44013370  0.93531737    -0.15900
F1284       F  0.60338082  0.40759417  0.97966510    -0.13600
C1285       C  0.66059234  0.42413178  0.57698944     0.24400
C1286       C  0.64100249  0.39426616  0.56706412    -0.23700
C1287       C  0.60545299  0.38995905  0.57855517     0.19300
C1288       C  0.58879933  0.41653987  0.59780108     0.24400
C1289       C  0.60773358  0.44763917  0.60639397    -0.23600
C1290       C  0.64441924  0.45035178  0.59693617     0.19300
F1291       F  0.66449608  0.47918256  0.60549293    -0.13600
F1292       F  0.69539845  0.42791877  0.56737959    -0.15900
F1293       F  0.55387011  0.41235855  0.60688024    -0.15900
F1294       F  0.58645012  0.36036813  0.57016332    -0.13600
C1295       C  0.59642424  0.20615263  0.97633464     0.24400
C1296       C  0.63290929  0.20341496  0.98600998    -0.23700
C1297       C  0.65351412  0.17591384  0.97166708     0.19300
C1298       C  0.63818231  0.15197666  0.94858851     0.24400
C1299       C  0.60203458  0.15495276  0.93900230    -0.23600
C1300       C  0.58124803  0.18211189  0.95310348     0.19300
F1301       F  0.54593693  0.18457268  0.94535779    -0.13600
F1302       F  0.57517161  0.23211540  0.98927050    -0.15900
F1303       F  0.65867298  0.12533689  0.93577022    -0.15900
F1304       F  0.68867678  0.17226014  0.97955326    -0.13600
C1305       C  0.35037477  0.53707396  0.92255998     0.24400
C1306       C  0.38645061  0.54101146  0.91149851    -0.23700
C1307       C  0.40448381  0.57300393  0.91847486     0.19300
C1308       C  0.38748698  0.59970042  0.93722476     0.24400
C1309       C  0.35243870  0.59464815  0.94985284    -0.23600
C1310       C  0.33385299  0.56347062  0.94205362     0.19300
F1311       F  0.29976901  0.55853486  0.95340912    -0.13600
F1312       F  0.33146293  0.50686705  0.91625467    -0.15900
F1313       F  0.40594605  0.62995943  0.94446098    -0.15900
F1314       F  0.43892643  0.57801721  0.90817832    -0.13600
C1315       C  0.43826678  0.66128111  0.57822278     0.24400
C1316       C  0.41375669  0.64082146  0.55975471    -0.23700
C1317       C  0.41230578  0.60390002  0.56491643     0.19300
C1318       C  0.43485085  0.58754474  0.58833599     0.24400
C1319       C  0.45948477  0.60784500  0.60725747    -0.23600
C1320       C  0.46109928  0.64502908  0.60160787     0.19300
F1321       F  0.48456671  0.66591842  0.61889590    -0.13600
F1322       F  0.43921018  0.69712442  0.57448742    -0.15900
F1323       F  0.43279991  0.55174475  0.59198651    -0.15900
F1324       F  0.38807467  0.58368723  0.54784328    -0.13600
C1325       C  0.85668496  0.53422176  0.83435590     0.24400
C1326       C  0.88991768  0.53918863  0.85106039    -0.23700
C1327       C  0.90626074  0.57284703  0.84980709     0.19300
C1328       C  0.88973303  0.60079507  0.83245857     0.24400
C1329       C  0.85716835  0.59529747  0.81508783    -0.23600
C1330       C  0.84090229  0.56182638  0.81615111     0.19300
F1331       F  0.80965675  0.55583099  0.79953301    -0.13600
F1332       F  0.84011693  0.50202894  0.83400227    -0.15900
F1333       F  0.90640938  0.63292611  0.83132836    -0.15900
F1334       F  0.93837304  0.57859861  0.86496786    -0.13600
C1335       C  0.81649944  0.41034605  0.95560339     0.24400
C1336       C  0.84377427  0.39091770  0.93996537    -0.23700
C1337       C  0.84562491  0.35402692  0.94517444     0.19300
C1338       C  0.81940894  0.33638323  0.96427384     0.24400
C1339       C  0.79078213  0.35537790  0.97878233    -0.23600
C1340       C  0.79031930  0.39288930  0.97505542     0.19300
F1341       F  0.76386427  0.41280021  0.98917781    -0.13600
F1342       F  0.81516609  0.44616744  0.95196589    -0.15900
F1343       F  0.83129856  0.32349057  0.50877415    -0.15900
F1344       F  0.87256359  0.33479426  0.93106650    -0.13600
C1345       C  0.96095257  0.64858778  0.66561502     0.24400
C1346       C  0.96074652  0.61107902  0.66305943    -0.23700
C1347       C  0.93831198  0.59151641  0.68496541     0.19300
C1348       C  0.91691799  0.60894673  0.70888153     0.24400
C1349       C  0.91684332  0.64619966  0.71093224    -0.23600
C1350       C  0.93882450  0.66592993  0.68911328     0.19300
F1351       F  0.93778241  0.70198579  0.68971150    -0.13600
F1352       F  0.98205902  0.66861655  0.64493305    -0.15900
F1353       F  0.89484833  0.58941054  0.72910315    -0.15900
F1354       F  0.93742530  0.55546844  0.68379156    -0.13600
C1355       C  0.99322888  0.53402122  0.51430748     0.24400
C1356       C  0.00884298  0.51420691  0.54038604    -0.23700
C1357       C  0.01146073  0.47690041  0.53625019     0.19300
C1358       C  0.99871797  0.46000532  0.50701061     0.24400
C1359       C  0.98519478  0.47692974  0.97860046    -0.23600
C1360       C  0.97615707  0.51280676  0.98482388     0.19300
F1361       F  0.95449179  0.53057923  0.96319016    -0.13600
F1362       F  0.98953708  0.56974803  0.51738593    -0.15900
F1363       F  0.00237714  0.42424035  0.50418170    -0.15900
F1364       F  0.02684501  0.45639285  0.56038603    -0.13600
C1365       C  0.99203247  0.52969574  0.75155844     0.24400
C1366       C  0.02432570  0.51469554  0.73946195    -0.23700
C1367       C  0.03207816  0.47941263  0.74759335     0.19300
C1368       C  0.00740969  0.45908483  0.76608493     0.24400
C1369       C  0.97533674  0.47416758  0.77839274    -0.23600
C1370       C  0.96764828  0.50953814  0.77053220     0.19300
F1371       F  0.93745302  0.52513922  0.78272854    -0.13600
F1372       F  0.98367658  0.56380451  0.74397988    -0.15900
F1373       F  0.01514916  0.42466387  0.77287930    -0.15900
F1374       F  0.06270508  0.46410632  0.73621568    -0.13600
C1375       C  0.18275067  0.57616655  0.56140168     0.24400
C1376       C  0.15354132  0.59521232  0.57407633    -0.23700
C1377       C  0.15006058  0.63136414  0.56570665     0.19300
C1378       C  0.17675171  0.64896061  0.54714467     0.24400
C1379       C  0.20739019  0.63062031  0.53603584    -0.23600
C1380       C  0.20926712  0.59350932  0.54216225     0.19300
F1381       F  0.23745693  0.57404908  0.53079480    -0.13600
F1382       F  0.18556372  0.54083726  0.56757763    -0.15900
F1383       F  0.16538484  0.68732674  0.03395233    -0.15900
F1384       F  0.12125561  0.65015168  0.57670390    -0.13600
C1385       C  0.32183334  0.34769315  0.78457554     0.24400
C1386       C  0.28618814  0.35753310  0.79052582    -0.23700
C1387       C  0.27921954  0.38609589  0.81303043     0.19300
C1388       C  0.30708001  0.40314702  0.83041953     0.24400
C1389       C  0.34271725  0.39288671  0.82505910    -0.23600
C1390       C  0.34988759  0.36552911  0.80122808     0.19300
F1391       F  0.38399528  0.35464017  0.79530824    -0.13600
F1392       F  0.32948885  0.32066819  0.76285545    -0.15900
F1393       F  0.29907708  0.42939979  0.85290905    -0.15900
F1394       F  0.24509068  0.39634309  0.81986774    -0.13600
C1395       C  0.20814321  0.24243269  0.63593016     0.24400
C1396       C  0.22831508  0.25326432  0.66414842    -0.23700
C1397       C  0.26623779  0.25230469  0.66150765     0.19300
C1398       C  0.28330444  0.24129175  0.63152794     0.24400
C1399       C  0.26315249  0.23090453  0.60318785    -0.23600
C1400       C  0.22521509  0.23132308  0.60598342     0.19300
F1401       F  0.20414094  0.22088881  0.57971934    -0.13600
F1402       F  0.17176895  0.24237062  0.63716820    -0.15900
F1403       F  0.31966861  0.24113818  0.63031755    -0.15900
F1404       F  0.28731496  0.26212853  0.68795805    -0.13600
C1405       C  0.22819081  0.21340743  0.89752516     0.24400
C1406       C  0.26395373  0.22109675  0.90556880    -0.23700
C1407       C  0.27941087  0.25308711  0.89369895     0.19300
C1408       C  0.25970295  0.27659797  0.87383381     0.24400
C1409       C  0.22418039  0.26856482  0.86530960    -0.23600
C1410       C  0.20843749  0.23704819  0.87782842     0.19300
F1411       F  0.17409601  0.22861322  0.86970645    -0.13600
F1412       F  0.21176547  0.18405458  0.91029831    -0.15900
F1413       F  0.27600659  0.30610483  0.86121489    -0.15900
F1414       F  0.31347246  0.26204316  0.90242045    -0.13600
C1415       C  0.04231654  0.34235903  0.85970586     0.24400
C1416       C  0.03934412  0.37976437  0.85836135    -0.23700
C1417       C  0.05798177  0.39817397  0.83274027     0.19300
C1418       C  0.07798277  0.37965592  0.80841569     0.24400
C1419       C  0.08114037  0.34255020  0.81000820    -0.23600
C1420       C  0.06367045  0.32406906  0.83614789     0.19300
F1421       F  0.06831155  0.28848593  0.83948990    -0.13600
F1422       F  0.02505915  0.32351050  0.88422627    -0.15900
F1423       F  0.09597438  0.39824033  0.78420043    -0.15900
F1424       F  0.05633732  0.43410324  0.83068130    -0.13600
C1425       C  0.15782395  0.41683565  0.68371223     0.24400
C1426       C  0.13703979  0.39192152  0.70130837    -0.23700
C1427       C  0.09958715  0.39213370  0.69741106     0.19300
C1428       C  0.08289945  0.41859534  0.67826558     0.24400
C1429       C  0.10345589  0.44542157  0.66246464    -0.23600
C1430       C  0.14133193  0.44323124  0.66433015     0.19300
F1431       F  0.16265190  0.46745783  0.64852756    -0.13600
F1432       F  0.19411991  0.41584611  0.68559698    -0.15900
F1433       F  0.04654705  0.41886730  0.67673585    -0.15900
F1434       F  0.07899550  0.36705611  0.71286883    -0.13600
C1435       C  0.71311595  0.10472953  0.81083745     0.24400
C1436       C  0.70627422  0.13546459  0.79130690    -0.23700
C1437       C  0.67148871  0.14918046  0.79067391     0.19300
C1438       C  0.64396037  0.13218555  0.80865679     0.24400
C1439       C  0.65106457  0.10179375  0.82839035    -0.23600
C1440       C  0.68582093  0.08840887  0.82951344     0.19300
F1441       F  0.69336069  0.05949602  0.84865670    -0.13600
F1442       F  0.74668825  0.09136219  0.81348618    -0.15900
F1443       F  0.61059005  0.14640145  0.80797669    -0.15900
F1444       F  0.66422926  0.17915633  0.77298582    -0.13600
C1445       C  0.78665790  0.25404160  0.64029703     0.24400
C1446       C  0.76930667  0.23177981  0.66372095    -0.23700
C1447       C  0.73310545  0.22218415  0.65783924     0.19300
C1448       C  0.71465005  0.23495035  0.62963814     0.24400
C1449       C  0.73183734  0.25740055  0.60634092    -0.23600
C1450       C  0.76817352  0.26673881  0.61193952     0.19300
F1451       F  0.78583765  0.28866604  0.59016158    -0.13600
F1452       F  0.82109555  0.26453457  0.64536318    -0.15900
F1453       F  0.68026884  0.22427219  0.62458423    -0.15900
F1454       F  0.71538263  0.19999506  0.67933283    -0.13600
C1455       C  0.77886343  0.25640809  0.87373093     0.24400
C1456       C  0.76615595  0.22267779  0.86328757    -0.23700
C1457       C  0.73217560  0.21144670  0.87432512     0.19300
C1458       C  0.71151559  0.23344123  0.89539384     0.24400
C1459       C  0.72426906  0.26728047  0.90557195    -0.23600
C1460       C  0.75783847  0.27875494  0.89392570     0.19300
F1461       F  0.77122960  0.31077022  0.90371080    -0.13600
F1462       F  0.81170192  0.26803179  0.86364423    -0.15900
F1463       F  0.67920975  0.22137629  0.90664790    -0.15900
F1464       F  0.71829234  0.17998538  0.86353817    -0.13600
C1465       C  0.91473875  0.31313534  0.81230178     0.24400
C1466       C  0.89300903  0.33472399  0.83259328    -0.23700
C1467       C  0.85565030  0.33356505  0.82869868     0.19300
C1468       C  0.84000848  0.31076134  0.80494705     0.24400
C1469       C  0.86156112  0.28823179  0.78500814    -0.23600
C1470       C  0.89921637  0.28973316  0.78894529     0.19300
F1471       F  0.92115512  0.26879475  0.76998860    -0.13600
F1472       F  0.95099391  0.31568079  0.81427867    -0.15900
F1473       F  0.80373956  0.31009826  0.80229108    -0.15900
F1474       F  0.83433600  0.35546119  0.84731236    -0.13600
C1475       C  0.79341431  0.89632205  0.54315021     0.24400
C1476       C  0.79532354  0.85958522  0.53511512    -0.23700
C1477       C  0.82553757  0.84060484  0.54547890     0.19300
C1478       C  0.85121091  0.85663252  0.56608976     0.24400
C1479       C  0.84800747  0.89255386  0.57633232    -0.23600
C1480       C  0.81942841  0.91252114  0.56379435     0.19300
F1481       F  0.81649561  0.94753374  0.57167863    -0.13600
F1482       F  0.76551410  0.91635219  0.53249349    -0.15900
F1483       F  0.87828865  0.83600431  0.57762244    -0.15900
F1484       F  0.82922453  0.80564366  0.53763316    -0.13600
C1485       C  0.90156440  0.79999658  0.73989956     0.24400
C1486       C  0.86471467  0.79203964  0.73571057    -0.23700
C1487       C  0.84699521  0.80610339  0.70752388     0.19300
C1488       C  0.86572631  0.82599747  0.68339299     0.24400
C1489       C  0.90210269  0.83500157  0.68795606    -0.23600
C1490       C  0.91986468  0.82207131  0.71665508     0.19300
F1491       F  0.95407419  0.83237246  0.72317683    -0.13600
F1492       F  0.91951374  0.78733693  0.76714781    -0.15900
F1493       F  0.84759874  0.83852093  0.65613959    -0.15900
F1494       F  0.81145586  0.80032739  0.70285855    -0.13600
C1495       C  0.84941885  0.05034759  0.65482955     0.24400
C1496       C  0.88718166  0.04921112  0.65159386    -0.23700
C1497       C  0.90773098  0.07386589  0.67001019     0.19300
C1498       C  0.89127186  0.09643834  0.69366406     0.24400
C1499       C  0.85396769  0.09508526  0.69915357    -0.23600
C1500       C  0.83297856  0.07310888  0.67843989     0.19300
F1501       F  0.79672474  0.07315939  0.68157393    -0.13600
F1502       F  0.82871873  0.02697229  0.63724359    -0.15900
F1503       F  0.91201447  0.11903231  0.71207576    -0.15900
F1504       F  0.94407203  0.07332680  0.66804489    -0.13600
C1505       C  0.15959852  0.67214597  0.72308147     0.24400
C1506       C  0.13876268  0.70100975  0.73416146    -0.23700
C1507       C  0.10411507  0.70532937  0.72001198     0.19300
C1508       C  0.09060515  0.68098835  0.69624899     0.24400
C1509       C  0.11112971  0.65179813  0.68626338    -0.23600
C1510       C  0.14579588  0.64773652  0.69961225     0.19300
F1511       F  0.16621775  0.61959057  0.69012969    -0.13600
F1512       F  0.19332891  0.66735835  0.73490595    -0.15900
F1513       F  0.05685536  0.68506274  0.68419408    -0.15900
F1514       F  0.08307729  0.73322751  0.72890304    -0.13600
C1515       C  0.28607739  0.75762643  0.89111804     0.24400
C1516       C  0.26861486  0.73560409  0.91473436    -0.23700
C1517       C  0.23223278  0.72659043  0.90897759     0.19300
C1518       C  0.21396560  0.73902514  0.88045034     0.24400
C1519       C  0.23145378  0.76063625  0.85656750    -0.23600
C1520       C  0.26776444  0.77002529  0.86241501     0.19300
F1521       F  0.28557600  0.79174693  0.84056108    -0.13600
F1522       F  0.32047677  0.76816755  0.89631095    -0.15900
F1523       F  0.17937168  0.72887648  0.87575585    -0.15900
F1524       F  0.21414123  0.70513458  0.93086949    -0.13600
C1525       C  0.21360295  0.73101375  0.64389157     0.24400
C1526       C  0.22746778  0.76376206  0.65566652    -0.23700
C1527       C  0.26255197  0.77346516  0.64658965     0.19300
C1528       C  0.28314141  0.75114962  0.62587607     0.24400
C1529       C  0.26888405  0.71901288  0.61319187    -0.23600
C1530       C  0.23403771  0.70896760  0.62269684     0.19300
F1531       F  0.21918138  0.67867485  0.61019211    -0.13600
F1532       F  0.18041526  0.72002195  0.65371891    -0.15900
F1533       F  0.31711710  0.76107810  0.61768627    -0.15900
F1534       F  0.27771324  0.80341845  0.65955666    -0.13600
C1535       C  0.04921224  0.85966044  0.66118839     0.24400
C1536       C  0.04026899  0.89414668  0.67280863    -0.23700
C1537       C  0.05318246  0.90510056  0.70473743     0.19300
C1538       C  0.07335929  0.88197179  0.72484417     0.24400
C1539       C  0.08245379  0.84789769  0.71291863    -0.23600
C1540       C  0.07040867  0.83716238  0.68081911     0.19300
F1541       F  0.08009550  0.80503983  0.66802036    -0.13600
F1542       F  0.03806069  0.84762433  0.63045751    -0.15900
F1543       F  0.08617721  0.89389580  0.75498705    -0.15900
F1544       F  0.04730041  0.93859390  0.71616077    -0.13600
C1545       C  0.13695698  0.15524659  0.83338442     0.24400
C1546       C  0.09927046  0.15317711  0.83474147    -0.23700
C1547       C  0.07926247  0.17339297  0.81205884     0.19300
C1548       C  0.09643515  0.19574398  0.78866583     0.24400
C1549       C  0.13432606  0.19809094  0.78707106    -0.23600
C1550       C  0.15435638  0.17744613  0.80982557     0.19300
F1551       F  0.19071300  0.17922878  0.80988797    -0.13600
F1552       F  0.15699399  0.13480196  0.85424788    -0.15900
F1553       F  0.07572200  0.21491867  0.76731501    -0.15900
F1554       F  0.04296136  0.17064023  0.81189113    -0.13600
C1555       C  0.16887303  0.14751182  0.97429071     0.24400
C1556       C  0.20239765  0.13133918  0.97790049    -0.23700
C1557       C  0.20787282  0.09727203  0.96322938     0.19300
C1558       C  0.18081862  0.08055948  0.94456408     0.24400
C1559       C  0.14763983  0.09696580  0.94095611    -0.23600
C1560       C  0.14164862  0.13032053  0.95625769     0.19300
F1561       F  0.10975415  0.14701785  0.95247166    -0.13600
F1562       F  0.16265385  0.18026043  0.98754689    -0.15900
F1563       F  0.18701175  0.04837734  0.93004604    -0.15900
F1564       F  0.23524628  0.07821282  0.47545912    -0.13600
C1565       C  0.99445172  0.97386715  0.98271872     0.24400
C1566       C  0.00509954  0.01016037  0.98264916    -0.23700
C1567       C  0.00965978  0.03103825  0.51089278     0.19300
C1568       C  0.00098598  0.01367073  0.54129649     0.24400
C1569       C  0.98584074  0.97897403  0.54123177    -0.23600
C1570       C  0.97830927  0.96298596  0.50980151     0.19300
F1571       F  0.96278817  0.93031655  0.50824070    -0.13600
F1572       F  0.99448155  0.95436379  0.95365475    -0.15900
F1573       F  0.00757153  0.03114923  0.57083881    -0.15900
F1574       F  0.02521853  0.06369898  0.51217812    -0.13600
C1575       C  0.98362346  0.95988104  0.75885683     0.24400
C1576       C  0.95658441  0.98116989  0.74508153    -0.23700
C1577       C  0.95700030  0.01783290  0.75209248     0.19300
C1578       C  0.98531492  0.03331099  0.76977804     0.24400
C1579       C  0.01299252  0.01234471  0.78281449    -0.23600
C1580       C  0.01151092  0.97532277  0.77780457     0.19300
F1581       F  0.03627548  0.95404873  0.79241481    -0.13600
F1582       F  0.98425173  0.92451357  0.75201120    -0.15900
F1583       F  0.98486637  0.06886497  0.77585631    -0.15900
F1584       F  0.93153581  0.03917745  0.73871631    -0.13600
C1585       C  0.93204001  0.08427033  0.83709953     0.24400
C1586       C  0.95057744  0.10350831  0.86225447    -0.23700
C1587       C  0.94697059  0.14086900  0.86303960     0.19300
C1588       C  0.92599684  0.15844679  0.83900826     0.24400
C1589       C  0.90893204  0.13935094  0.81306140    -0.23600
C1590       C  0.91161134  0.10206046  0.81270238     0.19300
F1591       F  0.89305646  0.08270576  0.78948524    -0.13600
F1592       F  0.93427498  0.04832342  0.83551735    -0.15900
F1593       F  0.92131078  0.19409388  0.84174970    -0.15900
F1594       F  0.96354457  0.16048204  0.88739451    -0.13600
C1595       C  0.11111864  0.88846395  0.83713303     0.24400
C1596       C  0.14041302  0.89617538  0.81543865    -0.23700
C1597       C  0.15193826  0.93129771  0.81189753     0.19300
C1598       C  0.13490664  0.95832865  0.83009036     0.24400
C1599       C  0.10515173  0.95083531  0.85149032    -0.23600
C1600       C  0.09333320  0.91565970  0.85462294     0.19300
F1601       F  0.06459862  0.90763587  0.87448961    -0.13600
F1602       F  0.09859095  0.85468755  0.84017673    -0.15900
F1603       F  0.14668905  0.99214083  0.82537942    -0.15900
F1604       F  0.17970219  0.93945786  0.79083786    -0.13600
C1605       C  0.39948706  0.79084694  0.53696056     0.24400
C1606       C  0.36179574  0.78707759  0.53511767    -0.23700
C1607       C  0.34045785  0.80659620  0.55805342     0.19300
C1608       C  0.35635307  0.82889948  0.58228387     0.24400
C1609       C  0.39378510  0.83279106  0.58373708    -0.23600
C1610       C  0.41519513  0.81388135  0.56070211     0.19300
F1611       F  0.45128283  0.81873512  0.56040854    -0.13600
F1612       F  0.42126506  0.77266953  0.51538983    -0.15900
F1613       F  0.33504810  0.84787878  0.60365088    -0.15900
F1614       F  0.30419058  0.80356672  0.55768667    -0.13600
C1615       C  0.50888494  0.96239673  0.75035942     0.24400
C1616       C  0.48711664  0.98009991  0.72702018    -0.23700
C1617       C  0.47922494  0.01637275  0.73300048     0.19300
C1618       C  0.49198950  0.03407459  0.76198583     0.24400
C1619       C  0.51287133  0.01604248  0.78583714    -0.23600
C1620       C  0.52169789  0.98009563  0.77926503     0.19300
F1621       F  0.54310516  0.96188394  0.80079364    -0.13600
F1622       F  0.51864168  0.92814932  0.74482823    -0.15900
F1623       F  0.48277066  0.06850692  0.76722880    -0.15900
F1624       F  0.45839894  0.03474674  0.71109762    -0.13600
C1625       C  0.48738739  0.02739853  0.49888331     0.24400
C1626       C  0.51981092  0.01111161  0.98633822    -0.23700
C1627       C  0.52713672  0.97529994  0.99285686     0.19300
C1628       C  0.50447244  0.95754189  0.51519702     0.24400
C1629       C  0.47207544  0.97237155  0.52709876    -0.23600
C1630       C  0.46341109  0.00720883  0.51814945     0.19300
F1631       F  0.43293964  0.02252987  0.53005439    -0.13600
F1632       F  0.47838208  0.06116257  0.49055752    -0.15900
F1633       F  0.51169500  0.92082169  0.01963029    -0.15900
F1634       F  0.55587024  0.95926633  0.97827734    -0.13600
C1635       C  0.33297253  0.06194652  0.57289443     0.24400
C1636       C  0.35163658  0.09295146  0.56462978    -0.23700
C1637       C  0.38697113  0.09768871  0.57628883     0.19300
C1638       C  0.40416125  0.07080405  0.59438314     0.24400
C1639       C  0.38602270  0.03892045  0.60180569    -0.23600
C1640       C  0.34971814  0.03532449  0.59165720     0.19300
F1641       F  0.33063618  0.00533843  0.59839343    -0.13600
F1642       F  0.29848111  0.05749267  0.56285542    -0.15900
F1643       F  0.43878011  0.07568404  0.60384848    -0.15900
F1644       F  0.40537161  0.12796664  0.56899986    -0.13600
C1645       C  0.35081023  0.86519626  0.71466072     0.24400
C1646       C  0.34380190  0.89369105  0.69244933    -0.23700
C1647       C  0.30851213  0.90494044  0.68805806     0.19300
C1648       C  0.28052382  0.88760682  0.70490877     0.24400
C1649       C  0.28725599  0.85805349  0.72602251    -0.23600
C1650       C  0.32267050  0.84721984  0.73093021     0.19300
F1651       F  0.32998364  0.81901761  0.75106414    -0.13600
F1652       F  0.38476730  0.85335219  0.71912021    -0.15900
F1653       F  0.24655531  0.89859202  0.69883122    -0.15900
F1654       F  0.30105235  0.93240878  0.66702770    -0.13600
C1655       C  0.59268733  0.88765901  0.57016463     0.24400
C1656       C  0.58959552  0.85137367  0.56187734    -0.23700
C1657       C  0.56173240  0.83131228  0.57594910     0.19300
C1658       C  0.53733320  0.84720090  0.59838757     0.24400
C1659       C  0.54030925  0.88375848  0.60701625    -0.23600
C1660       C  0.56825348  0.90377288  0.59232449     0.19300
F1661       F  0.57196765  0.93898482  0.59912641    -0.13600
F1662       F  0.61990431  0.90748622  0.55702511    -0.15900
F1663       F  0.51085402  0.82652591  0.61163720    -0.15900
F1664       F  0.55897768  0.79604902  0.56900223    -0.13600
loop_ 
_geom_bond_atom_site_label_1 
_geom_bond_atom_site_label_2 
_geom_bond_distance 
_geom_bond_site_symmetry_2 
_ccdc_geom_bond_type 
O1           C16   1.257   1_565  A
O1           Al9   1.871       .  S
C2           O12   1.253       .  A
C2            O3   1.271       .  A
C2          C827   1.481       .  S
O3           Al5   1.946       .  S
O4            C6   1.245       .  A
O4           Al5   1.844       .  S
Al5          O13   1.868       .  S
Al5          O15   1.979   1_565  S
Al5          O14   1.759       .  S
C6           O19   1.271       .  A
C6          C797   1.458       .  S
O7           C17   1.253       .  A
O7           Al9   1.860       .  S
O8           C21   1.258       .  A
O8          Al18   1.867       .  S
Al9          O22   1.957       .  S
Al9          O19   1.976       .  S
Al9          O14   1.763       .  S
O10          C17   1.272       .  A
O10         Al18   1.969       .  S
O11          C20   1.277       .  A
O11         Al18   1.968       .  S
O12         Al18   1.860       .  S
O13          C20   1.258       .  A
O14         Al18   1.770       .  S
O15          C16   1.277       .  A
C16         C807   1.486       .  S
C17         C777   1.460       .  S
C20         C784   1.493       .  S
C21          O22   1.273       .  A
C21         C814   1.463       .  S
O23          C38   1.252   1_545  A
O23         Al31   1.864       .  S
C24          O34   1.252   1_655  A
C24          O25   1.274       .  A
C24         C754   1.488       .  S
O25         Al27   1.959   1_655  S
O26          C28   1.241       .  A
O26         Al27   1.807       .  S
Al27         O35   1.851       .  S
Al27         O37   1.988   1_545  S
Al27         O36   1.763       .  S
C28          O41   1.278       .  A
C28         C747   1.465       .  S
O29          C39   1.257       .  A
O29         Al31   1.864       .  S
O30          C43   1.256       .  A
O30         Al40   1.862       .  S
Al31         O44   1.966       .  S
Al31         O41   2.015       .  S
Al31         O36   1.763       .  S
O32          C39   1.276       .  A
O32         Al40   1.981       .  S
O33          C42   1.280       .  A
O33         Al40   1.988       .  S
O34         Al40   1.854       .  S
O35          C42   1.255       .  A
O36         Al40   1.766       .  S
O37          C38   1.276       .  A
C38         C767   1.487       .  S
C39         C714   1.477       .  S
C42         C734   1.489       .  S
C43          O44   1.275       .  A
C43         C727   1.467       .  S
O45          C60   1.255       .  A
O45         Al53   1.867       .  S
C46          O56   1.256       .  A
C46          O47   1.270       .  A
C46         C674   1.483       .  S
O47         Al49   1.942       .  S
O48          C50   1.244       .  A
O48         Al49   1.838       .  S
Al49         O57   1.860       .  S
Al49         O59   1.970       .  S
Al49         O58   1.762       .  S
C50          O63   1.275       .  A
C50         C694   1.465       .  S
O51          C61   1.257       .  A
O51         Al53   1.872       .  S
O52          C65   1.258       .  A
O52         Al62   1.871       .  S
Al53         O66   1.962       .  S
Al53         O63   2.001       .  S
Al53         O58   1.765       .  S
O54          C61   1.276       .  A
O54         Al62   1.984       .  S
O55          C64   1.282       .  A
O55         Al62   1.991       .  S
O56         Al62   1.875       .  S
O57          C64   1.256       .  A
O58         Al62   1.765       .  S
O59          C60   1.275       .  A
C60         C817   1.483       .  S
C61         C707   1.475       .  S
C64         C687   1.497       .  S
C65          O66   1.274       .  A
C65         C764   1.473       .  S
O67          C82   1.274       .  A
O67         Al75   1.941       .  S
C68          O78   1.269       .  A
C68          O69   1.261   1_455  A
C68         C704   1.496       .  S
O69         Al71   1.900       .  S
O70          C72   1.267       .  A
O70         Al71   1.956       .  S
Al71         O79   1.945       .  S
Al71         O81   1.873       .  S
Al71         O80   1.783       .  S
C72          O85   1.245       .  A
C72         C657   1.473       .  S
O73          C83   1.269       .  A
O73         Al75   1.973       .  S
O74          C87   1.278       .  A
O74         Al84   1.946   1_545  S
Al75         O88   1.870       .  S
Al75         O85   1.834       .  S
Al75         O80   1.774       .  S
O76          C83   1.242       .  A
O76         Al84   1.833       .  S
O77          C86   1.251       .  A
O77         Al84   1.876       .  S
O78         Al84   1.934   1_455  S
O79          C86   1.268       .  A
O80         Al84   1.787       .  S
O81          C82   1.258       .  A
C82         C647   1.491       .  S
C83         C744   1.468       .  S
C86         C737   1.494       .  S
C87          O88   1.259   1_545  A
C87         C664   1.486       .  S
O89         C104   1.276       .  A
O89         Al97   1.971       .  S
C90         O100   1.268       .  A
C90          O91   1.254       .  A
C90         C637   1.481       .  S
O91         Al93   1.873       .  S
O92          C94   1.276       .  A
O92         Al93   1.982       .  S
Al93        O101   1.990       .  S
Al93        O103   1.865       .  S
Al93        O102   1.765       .  S
C94         O107   1.253       .  A
C94         C757   1.468       .  S
O95         C105   1.279       .  A
O95         Al97   2.008       .  S
O96         C109   1.274       .  A
O96        Al106   1.973       .  S
Al97        O110   1.866       .  S
Al97        O107   1.853       .  S
Al97        O102   1.759       .  S
O98         C105   1.247       .  A
O98        Al106   1.848       .  S
O99         C108   1.258       .  A
O99        Al106   1.858       .  S
O100       Al106   1.936       .  S
O101        C108   1.283       .  A
O102       Al106   1.761       .  S
O103        C104   1.256       .  A
C104        C667   1.475       .  S
C105        C624   1.474       .  S
C108        C614   1.496       .  S
C109        O110   1.253       .  A
C109        C604   1.486       .  S
O111        C126   1.276       .  A
O111       Al119   1.969       .  S
C112        O122   1.274       .  A
C112        O113   1.254       .  A
C112        C717   1.496       .  S
O113       Al115   1.864       .  S
O114        C116   1.275       .  A
O114       Al115   1.978       .  S
Al115       O123   1.996       .  S
Al115       O125   1.868       .  S
Al115       O124   1.767       .  S
C116        O129   1.254       .  A
C116        C587   1.468       .  S
O117        C127   1.276       .  A
O117       Al119   1.996       .  S
O118        C131   1.276       .  A
O118       Al128   1.984       .  S
Al119       O132   1.869       .  S
Al119       O129   1.864       .  S
Al119       O124   1.760       .  S
O120        C127   1.245       .  A
O120       Al128   1.831       .  S
O121        C130   1.256       .  A
O121       Al128   1.861       .  S
O122       Al128   1.958       .  S
O123        C130   1.281       .  A
O124       Al128   1.761       .  S
O125        C126   1.259       .  A
C126        C594   1.472       .  S
C127        C577   1.463       .  S
C130        C564   1.489       .  S
C131        O132   1.254       .  A
C131        C554   1.490       .  S
O133        C148   1.276       .  A
O133       Al141   1.972       .  S
C134        O144   1.271       .  A
C134        O135   1.253   1_655  A
C134        C514   1.486       .  S
O135       Al137   1.857       .  S
O136        C138   1.275       .  A
O136       Al137   1.979       .  S
Al137       O145   1.982       .  S
Al137       O147   1.862       .  S
Al137       O146   1.767       .  S
C138        O151   1.253       .  A
C138        C677   1.468       .  S
O139        C149   1.275       .  A
O139       Al141   1.987       .  S
O140        C153   1.275       .  A
O140       Al150   1.970       .  S
Al141       O154   1.876       .  S
Al141       O151   1.863       .  S
Al141       O146   1.760       .  S
O142        C149   1.246       .  A
O142       Al150   1.841       .  S
O143        C152   1.256       .  A
O143       Al150   1.857       .  S
O144       Al150   1.946   1_655  S
O145        C152   1.279       .  A
O146       Al150   1.759       .  S
O147        C148   1.257       .  A
C148        C544   1.470       .  S
C149        C534   1.462       .  S
C152        C524   1.487       .  S
C153        O154   1.257       .  A
C153        C597   1.490       .  S
O155        C170   1.255       .  A
O155       Al163   1.865       .  S
C156        O166   1.253   1_455  A
C156        O157   1.274       .  A
C156        C584   1.485       .  S
O157       Al159   1.955   1_455  S
O158        C160   1.245       .  A
O158       Al159   1.841       .  S
Al159       O167   1.868       .  S
Al159       O169   1.985       .  S
Al159       O168   1.757       .  S
C160        O173   1.272       .  A
C160        C537   1.460       .  S
O161        C171   1.254       .  A
O161       Al163   1.862       .  S
O162        C175   1.257       .  A
O162       Al172   1.865       .  S
Al163       O176   1.958       .  S
Al163       O173   1.980       .  S
Al163       O168   1.761       .  S
O164        C171   1.273       .  A
O164       Al172   1.970       .  S
O165        C174   1.276       .  A
O165       Al172   1.966       .  S
O166       Al172   1.853       .  S
O167        C174   1.257       .  A
O168       Al172   1.768       .  S
O169        C170   1.278       .  A
C170        C494   1.486       .  S
C171        C634   1.460       .  S
C174        C527   1.491       .  S
C175        O176   1.275       .  A
C175        C504   1.472       .  S
O177       C1024   1.273   1_554  A
O177       Al185   1.963       .  S
C178        O188   1.270       .  A
C178       O1011   1.251       .  A
C178        C774   1.481       .  S
O179       C1010   1.254       .  A
O179       Al181   1.869       .  S
O180        C182   1.278       .  A
O180      Al1013   1.988   1_554  S
Al181       O189   1.995       .  S
Al181       O191   1.875       .  S
Al181      O1012   1.979       .  S
Al181      O1022   1.772       .  S
C182        O195   1.253       .  A
C182        C484   1.469       .  S
O183        C193   1.277       .  A
O183       Al185   2.004       .  S
O184        C197   1.276       .  A
O184       Al194   1.986       .  S
Al185       O198   1.867       .  S
Al185       O195   1.848       .  S
Al185       O190   1.761       .  S
O186        C193   1.245       .  A
O186       Al194   1.840       .  S
O187        C196   1.256       .  A
O187      Al1026   1.859       .  S
O188       Al194   1.944       .  S
O189        C196   1.281       .  A
O190       Al194   1.759       .  S
O190      Al1013   1.764   1_554  S
O191        C192   1.260       .  A
C192       O1009   1.274       .  A
C192        C477   1.479       .  S
C193        C697   1.465       .  S
Al194      O1019   1.852   1_554  S
C196        C684   1.498       .  S
C197        O198   1.254       .  A
C197        C547   1.487       .  S
O199        C214   1.255       .  A
O199       Al207   1.862       .  S
C200        O210   1.255       .  A
C200        O201   1.271       .  A
C200       C1296   1.495   1_554  S
O201      Al1035   1.946       .  S
O202        C204   1.245       .  A
O202       Al203   1.844       .  S
Al203       O213   1.976       .  S
Al203      O1033   1.948       .  S
Al203      O1043   1.857       .  S
Al203      O1044   1.758       .  S
C204        O217   1.276       .  A
C204        C627   1.470       .  S
O205        C215   1.254       .  A
O205       Al207   1.859       .  S
O206        C219   1.258       .  A
O206       Al216   1.869       .  S
Al207       O217   2.000       .  S
Al207      O1052   1.973       .  S
Al207      O1044   1.757       .  S
O208       C1047   1.276   1_554  A
O208       Al216   1.981       .  S
O209        C218   1.282       .  A
O209       Al216   1.992       .  S
O210       Al216   1.874       .  S
O211        C218   1.256       .  A
O211      Al1035   1.856       .  S
O212       Al216   1.765       .  S
O212      Al1035   1.760       .  S
O212      Al1039   1.760   1_554  S
O213        C214   1.275       .  A
C214        C507   1.470       .  S
C215       O1040   1.277       .  A
C215        C444   1.467       .  S
C218        C617   1.498       .  S
C219        O220   1.276       .  A
C219        C454   1.480       .  S
O220      Al1039   1.973   1_554  S
O221        C236   1.275       .  A
O221       Al229   1.967       .  S
C222        O232   1.268       .  A
C222        O223   1.255       .  A
C222        C447   1.486       .  S
O223       Al225   1.881       .  S
O224        C226   1.273       .  A
O224       Al225   1.968       .  S
Al225       O233   1.982       .  S
Al225       O235   1.873       .  S
Al225       O234   1.771       .  S
C226        O239   1.253       .  A
C226        C434   1.459       .  S
O227        C237   1.277       .  A
O227       Al229   2.003       .  S
O228        C241   1.273       .  A
O228       Al238   1.974       .  S
Al229       O242   1.871       .  S
Al229       O239   1.848       .  S
Al229       O234   1.762       .  S
O230        C237   1.246       .  A
O230       Al238   1.848       .  S
O231        C240   1.257       .  A
O231       Al238   1.853       .  S
O232       Al238   1.939       .  S
O233        C240   1.281       .  A
O234       Al238   1.763       .  S
O235        C236   1.258       .  A
C236        C557   1.478       .  S
C237        C424   1.471       .  S
C240        C414   1.490       .  S
C241        O242   1.256       .  A
C241        C474   1.477       .  S
O243        C258   1.255       .  A
O243       Al251   1.868       .  S
C244        O254   1.254       .  A
C244        O245   1.273       .  A
C244       C1269   1.497   1_554  S
O245      Al1079   1.955       .  S
O246        C248   1.245       .  A
O246       Al247   1.837       .  S
Al247       O257   1.973       .  S
Al247      O1077   1.942       .  S
Al247      O1087   1.853       .  S
Al247      O1088   1.764       .  S
C248        O261   1.277       .  A
C248        C574   1.464       .  S
O249        C259   1.254       .  A
O249       Al251   1.860       .  S
O250        C263   1.260       .  A
O250       Al260   1.874       .  S
Al251       O261   1.998       .  S
Al251      O1096   1.967       .  S
Al251      O1088   1.760       .  S
O252       C1091   1.277   1_554  A
O252       Al260   1.985       .  S
O253        C262   1.283       .  A
O253       Al260   2.000       .  S
O254       Al260   1.869       .  S
O255        C262   1.255       .  A
O255      Al1079   1.861       .  S
O256       Al260   1.763       .  S
O256      Al1079   1.761       .  S
O256      Al1083   1.759   1_554  S
O257        C258   1.275       .  A
C258        C724   1.485       .  S
C259       O1084   1.276       .  A
C259        C407   1.468       .  S
C262        C567   1.489       .  S
C263        O264   1.277       .  A
C263        C804   1.482       .  S
O264      Al1083   1.973   1_554  S
O265        C280   1.273       .  A
O265       Al273   1.963       .  S
C266        O276   1.272       .  A
C266        O267   1.253       .  A
C266        C404   1.489       .  S
O267       Al269   1.864       .  S
O268        C270   1.276       .  A
O268       Al269   1.979       .  S
Al269       O277   1.990       .  S
Al269       O279   1.868       .  S
Al269       O278   1.763       .  S
C270        O283   1.253       .  A
C270        C467   1.462       .  S
O271        C281   1.275       .  A
O271       Al273   1.993       .  S
O272        C285   1.277       .  A
O272       Al282   1.989   1_565  S
Al273       O286   1.867       .  S
Al273       O283   1.849       .  S
Al273       O278   1.761       .  S
O274        C281   1.244       .  A
O274       Al282   1.832       .  S
O275        C284   1.255       .  A
O275       Al282   1.848       .  S
O276       Al282   1.952       .  S
O277        C284   1.281       .  A
O278       Al282   1.756       .  S
O279        C280   1.256       .  A
C280        C607   1.464       .  S
C281        C794   1.461       .  S
C284        C787   1.495       .  S
C285        O286   1.255   1_565  A
C285        C394   1.482       .  S
O287       C1134   1.277   1_554  A
O287       Al295   1.978       .  S
C288        O298   1.273       .  A
C288       O1121   1.252       .  A
C288        C367   1.495       .  S
O289       C1120   1.255       .  A
O289       Al291   1.874       .  S
O290        C292   1.274       .  A
O290      Al1123   1.974   1_554  S
Al291       O299   1.988       .  S
Al291       O301   1.869       .  S
Al291      O1122   1.974       .  S
Al291      O1132   1.768       .  S
C292        O305   1.253       .  A
C292        C824   1.461       .  S
O293        C303   1.277       .  A
O293       Al295   2.004       .  S
O294        C307   1.277       .  A
O294       Al304   1.984       .  S
Al295       O308   1.870       .  S
Al295       O305   1.855       .  S
Al295       O300   1.759       .  S
O296        C303   1.244       .  A
O296       Al304   1.832       .  S
O297        C306   1.254       .  A
O297      Al1136   1.850       .  S
O298       Al304   1.953       .  S
O299        C306   1.281       .  A
O300       Al304   1.759       .  S
O300      Al1123   1.768   1_554  S
O301        C302   1.258       .  A
C302       O1119   1.275       .  A
C302        C397   1.479       .  S
C303        C384   1.472       .  S
Al304      O1129   1.855   1_554  S
C306        C374   1.489       .  S
C307        O308   1.255       .  A
C307        C644   1.487       .  S
O309        C324   1.257       .  A
O309       Al317   1.874       .  S
C310        O320   1.248       .  A
C310        O311   1.271       .  A
C310        C654   1.471       .  S
O311       Al313   1.958       .  S
O312        C314   1.247       .  A
O312       Al313   1.841       .  S
Al313       O321   1.847       .  S
Al313       O323   1.984       .  S
Al313       O322   1.761       .  S
C314        O327   1.280       .  A
C314        C387   1.477       .  S
O315        C325   1.255       .  A
O315       Al317   1.850       .  S
O316        C329   1.254       .  A
O316       Al326   1.864       .  S
Al317       O330   1.976       .  S
Al317       O327   2.006       .  S
Al317       O322   1.764       .  S
O318        C325   1.277       .  A
O318       Al326   1.974       .  S
O319        C328   1.281       .  A
O319       Al326   1.988       .  S
O320       Al326   1.858       .  S
O321        C328   1.254       .  A
O322       Al326   1.760       .  S
O323        C324   1.277       .  A
C324        C354   1.489       .  S
C325        C517   1.463       .  S
C328        C377   1.485       .  S
C329        O330   1.275       .  A
C329        C497   1.480       .  S
O331        C346   1.256       .  A
O331       Al339   1.869       .  S
C332        O342   1.253       .  A
C332        O333   1.273       .  A
C332        C487   1.491       .  S
O333       Al335   1.952       .  S
O334        C336   1.244       .  A
O334       Al335   1.838       .  S
Al335       O343   1.851       .  S
Al335       O345   1.984       .  S
Al335       O344   1.758       .  S
C336        O349   1.277       .  A
C336        C427   1.467       .  S
O337        C347   1.253       .  A
O337       Al339   1.854       .  S
O338        C351   1.256       .  A
O338       Al348   1.873       .  S
Al339       O352   1.982       .  S
Al339       O349   2.002       .  S
Al339       O344   1.760       .  S
O340        C347   1.279       .  A
O340       Al348   1.994       .  S
O341        C350   1.280       .  A
O341       Al348   1.988       .  S
O342       Al348   1.856       .  S
O343        C350   1.254       .  A
O344       Al348   1.766       .  S
O345        C346   1.278       .  A
C346        C457   1.484       .  S
C347        C364   1.473       .  S
C350        C417   1.492       .  S
C351        O352   1.277       .  A
C351        C357   1.473       .  S
C353        C354   1.407       .  A
C353        C358   1.401       .  A
C353        F360   1.358       .  S
C354        C355   1.416       .  A
C355        C356   1.402       .  A
C355        F362   1.358       .  S
C356        C357   1.400       .  A
C356        F361   1.358       .  S
C357        C358   1.407       .  A
C358        F359   1.357       .  S
C363        C364   1.396       .  A
C363        C368   1.402       .  A
C363        F370   1.358       .  S
C364        C365   1.410       .  A
C365        C366   1.400       .  A
C365        F372   1.358       .  S
C366        C367   1.405       .  A
C366        F371   1.358       .  S
C367        C368   1.422       .  A
C368        F369   1.358       .  S
C373        C374   1.418       .  A
C373        C378   1.401       .  A
C373        F380   1.358       .  S
C374        C375   1.402       .  A
C375        C376   1.402       .  A
C375        F382   1.358       .  S
C376        C377   1.416       .  A
C376        F381   1.358       .  S
C377        C378   1.399       .  A
C378        F379   1.358       .  S
C383        C384   1.399       .  A
C383        C388   1.398       .  A
C383        F390   1.358       .  S
C384        C385   1.415       .  A
C385        C386   1.397       .  A
C385        F392   1.358       .  S
C386        C387   1.399       .  A
C386        F391   1.356       .  S
C387        C388   1.417       .  A
C388        F389   1.358       .  S
C393        C394   1.416       .  A
C393        C398   1.395       .  A
C393        F400   1.357       .  S
C394        C395   1.400       .  A
C395        C396   1.403       .  A
C395        F402   1.358       .  S
C396        C397   1.416       .  A
C396        F401   1.358       .  S
C397        C398   1.397       .  A
C398        F399   1.358       .  S
C403        C404   1.418       .  A
C403        C408   1.402       .  A
C403        F410   1.358       .  S
C404        C405   1.407       .  A
C405        C406   1.399       .  A
C405        F412   1.357       .  S
C406        C407   1.406       .  A
C406        F411   1.358       .  S
C407        C408   1.399       .  A
C408        F409   1.358       .  S
C413        C414   1.418       .  A
C413        C418   1.401       .  A
C413        F420   1.358       .  S
C414        C415   1.401       .  A
C415        C416   1.401       .  A
C415        F422   1.358       .  S
C416        C417   1.419       .  A
C416        F421   1.358       .  S
C417        C418   1.402       .  A
C418        F419   1.357       .  S
C423        C428   1.399       .  A
C423       C1256   1.410   1_554  A
C423        F430   1.358   1_554  S
C424        C425   1.402       .  A
C424       C1255   1.410       .  A
C425        C426   1.399       .  A
C425        F432   1.357       .  S
C426       C1259   1.410       .  A
C426        F431   1.358       .  S
C427        C428   1.402       .  A
C427       C1258   1.411       .  A
C428        F429   1.358       .  S
C433        C434   1.407       .  A
C433        C438   1.399       .  A
C433        F440   1.359       .  S
C434        C435   1.394       .  A
C435        C436   1.396       .  A
C435        F442   1.358       .  S
C436        C437   1.418       .  A
C436        F441   1.358       .  S
C437       C1076   1.484       .  S
C437        C438   1.407       .  A
C438       F1271   1.358       .  S
F439       C1270   1.358       .  S
C443        C444   1.403       .  A
C443        C448   1.403       .  A
C443        F450   1.358       .  S
C444        C445   1.404       .  A
C445        C446   1.399       .  A
C445        F452   1.358       .  S
C446        C447   1.408       .  A
C446        F451   1.357       .  S
C447        C448   1.411       .  A
C448        F449   1.358       .  S
C453        C454   1.398       .  A
C453        C458   1.400       .  A
C453        F460   1.358       .  S
C454        C455   1.413       .  A
C455        C456   1.401       .  A
C455        F462   1.358       .  S
C456        C457   1.400       .  A
C456        F461   1.357       .  S
C457        C458   1.417       .  A
C458        F459   1.358       .  S
C463        C464   1.419       .  A
C463        C468   1.398       .  A
C463        F470   1.358       .  S
C464       C1032   1.484       .  S
C464        C465   1.405       .  A
C465        C466   1.397       .  A
C465        F472   1.358       .  S
C466        C467   1.407       .  A
C466        F471   1.358       .  S
C467        C468   1.395       .  A
C468        F469   1.358       .  S
C473        C474   1.413       .  A
C473        C478   1.396       .  A
C473        F480   1.357       .  S
C474        C475   1.400       .  A
C475        C476   1.403       .  A
C475        F482   1.358       .  S
C476        C477   1.415       .  A
C476        F481   1.358       .  S
C477        C478   1.399       .  A
C478        F479   1.358       .  S
C483        C484   1.396       .  A
C483        C488   1.400       .  A
C483        F490   1.358       .  S
C484        C485   1.408       .  A
C485        C486   1.400       .  A
C485        F492   1.358       .  S
C486        C487   1.407       .  A
C486        F491   1.358       .  S
C487        C488   1.420       .  A
C488        F489   1.358       .  S
C493        C494   1.419       .  A
C493        C498   1.401       .  A
C493        F500   1.358       .  S
C494        C495   1.400       .  A
C495        C496   1.400       .  A
C495        F502   1.358       .  S
C496        C497   1.415       .  A
C496        F501   1.358       .  S
C497        C498   1.397       .  A
C498        F499   1.358       .  S
C503        C504   1.398       .  A
C503        C508   1.393       .  A
C503        F510   1.358       .  S
C504        C505   1.415       .  A
C505        C506   1.399       .  A
C505        F512   1.358       .  S
C506        C507   1.397       .  A
C506       F1343   1.357       .  S
C507        C508   1.413       .  A
C508        F509   1.357       .  S
F511       C1338   1.358       .  S
C513        C514   1.419       .  A
C513        C518   1.397       .  A
C513        F520   1.358       .  S
C514        C515   1.407       .  A
C515        C516   1.398       .  A
C515        F522   1.358       .  S
C516        C517   1.406       .  A
C516        F521   1.358       .  S
C517        C518   1.395       .  A
C518        F519   1.358       .  S
C523        C524   1.403   1_655  A
C523       C1360   1.401   1_554  A
C523        F530   1.358       .  S
C524        C525   1.416       .  A
C525        C526   1.400       .  A
C525        F532   1.358       .  S
C526       C1359   1.402   1_454  A
C526        F531   1.358   1_554  S
C527        C528   1.417       .  A
C527       C1358   1.404       .  A
C528       C1355   1.402       .  A
C528        F529   1.358       .  S
C533        C534   1.409   1_655  A
C533        C538   1.397       .  A
C533        F540   1.359       .  S
C534        C535   1.401       .  A
C535        C536   1.396       .  A
C535        F542   1.357       .  S
C536        C537   1.408   1_455  A
C536        F541   1.358       .  S
C537        C538   1.402       .  A
C538        F539   1.358       .  S
C543        C544   1.394       .  A
C543        C548   1.398       .  A
C543        F550   1.358       .  S
C544        C545   1.410       .  A
C545        C546   1.400       .  A
C545        F552   1.358       .  S
C546        C547   1.403       .  A
C546       F1383   1.358       .  S
C547        C548   1.421       .  A
C548        F549   1.358       .  S
F551       C1378   1.358       .  S
C553        C554   1.403       .  A
C553        C558   1.402       .  A
C553        F560   1.358       .  S
C554        C555   1.420       .  A
C555        C556   1.400       .  A
C555        F562   1.358       .  S
C556        C557   1.397       .  A
C556        F561   1.358       .  S
C557        C558   1.412       .  A
C558        F559   1.358       .  S
C563        C564   1.404       .  A
C563        C568   1.407       .  A
C563        F570   1.358       .  S
C564        C565   1.413       .  A
C565        C566   1.404       .  A
C565        F572   1.358       .  S
C566        C567   1.402       .  A
C566        F571   1.357       .  S
C567        C568   1.416       .  A
C568        F569   1.358       .  S
C573        C574   1.401       .  A
C573        C578   1.398       .  A
C573        F580   1.357       .  S
C574        C575   1.410       .  A
C575        C576   1.399       .  A
C575        F582   1.358       .  S
C576        C577   1.402       .  A
C576        F581   1.358       .  S
C577        C578   1.410       .  A
C578        F579   1.359       .  S
C583        C584   1.416       .  A
C583        C588   1.400       .  A
C583        F590   1.359       .  S
C584        C585   1.406       .  A
C585        C586   1.400       .  A
C585        F592   1.357       .  S
C586        C587   1.406       .  A
C586        F591   1.358       .  S
C587        C588   1.400       .  A
C588        F589   1.358       .  S
C593        C594   1.397       .  A
C593        C598   1.401       .  A
C593        F600   1.358       .  S
C594        C595   1.407       .  A
C595        C596   1.398       .  A
C595        F602   1.358       .  S
C596        C597   1.406       .  A
C596        F601   1.358       .  S
C597        C598   1.420       .  A
C598        F599   1.358       .  S
C603        C604   1.420       .  A
C603        C608   1.399       .  A
C603        F610   1.358       .  S
C604        C605   1.406       .  A
C605        C606   1.396       .  A
C605        F612   1.358       .  S
C606        C607   1.405       .  A
C606        F611   1.357       .  S
C607        C608   1.395       .  A
C608        F609   1.358       .  S
C613        C614   1.402       .  A
C613        C618   1.401       .  A
C613        F620   1.358       .  S
C614        C615   1.420       .  A
C615        C616   1.403       .  A
C615        F622   1.358       .  S
C616        C617   1.403       .  A
C616        F621   1.358       .  S
C617        C618   1.421       .  A
C618        F619   1.358       .  S
C623        C624   1.412       .  A
C623        C628   1.400       .  A
C623        F630   1.358       .  S
C624        C625   1.401       .  A
C625        C626   1.399       .  A
C625        F632   1.355       .  S
C626        C627   1.410       .  A
C626        F631   1.358       .  S
C627        C628   1.403       .  A
C628        F629   1.358       .  S
C633        C634   1.400       .  A
C633        C638   1.401       .  A
C633        F640   1.358       .  S
C634        C635   1.402       .  A
C635        C636   1.395       .  A
C635        F642   1.358       .  S
C636        C637   1.407       .  A
C636        F641   1.358       .  S
C637        C638   1.414       .  A
C638        F639   1.358       .  S
C643        C644   1.418       .  A
C643        C648   1.400       .  A
C643        F650   1.358       .  S
C644        C645   1.399       .  A
C645        C646   1.400       .  A
C645        F652   1.358       .  S
C646        C647   1.420       .  A
C646        F651   1.358       .  S
C647        C648   1.402       .  A
C648        F649   1.358       .  S
C653        C654   1.410       .  A
C653        C658   1.403       .  A
C653        F660   1.358       .  S
C654        C655   1.396       .  A
C655        C656   1.400       .  A
C655        F662   1.358       .  S
C656        C657   1.415       .  A
C656        F661   1.358       .  S
C657        C658   1.401       .  A
C658        F659   1.357       .  S
C663        C664   1.420       .  A
C663        C668   1.400       .  A
C663        F670   1.359       .  S
C664        C665   1.403       .  A
C665        C666   1.401       .  A
C665        F672   1.357       .  S
C666        C667   1.410       .  A
C666        F671   1.358       .  S
C667        C668   1.397       .  A
C668        F669   1.358       .  S
C673        C674   1.408       .  A
C673        C678   1.400       .  A
C673        F680   1.356       .  S
C674        C675   1.410       .  A
C675        C676   1.401       .  A
C675        F682   1.358       .  S
C676        C677   1.403       .  A
C676        F681   1.358       .  S
C677        C678   1.404       .  A
C678        F679   1.358       .  S
C683        C684   1.403       .  A
C683        C688   1.406       .  A
C683        F690   1.358       .  S
C684        C685   1.419       .  A
C685        C686   1.403       .  A
C685        F692   1.358       .  S
C686        C687   1.401       .  A
C686        F691   1.358       .  S
C687        C688   1.420       .  A
C688        F689   1.358       .  S
C693        C694   1.408       .  A
C693        C698   1.399       .  A
C693        F700   1.358       .  S
C694        C695   1.404       .  A
C695        C696   1.399       .  A
C695        F702   1.356       .  S
C696        C697   1.408       .  A
C696        F701   1.358       .  S
C697        C698   1.402       .  A
C698        F699   1.356       .  S
C703        C704   1.418       .  A
C703        C708   1.401       .  A
C703        F710   1.358       .  S
C704        C705   1.408       .  A
C705        C706   1.405       .  A
C705        F712   1.357       .  S
C706        C707   1.408       .  A
C706        F711   1.357       .  S
C707        C708   1.399       .  A
C708        F709   1.358       .  S
C713        C714   1.410       .  A
C713        C718   1.402       .  A
C713        F720   1.358       .  S
C714        C715   1.396       .  A
C715        C716   1.402       .  A
C715        F722   1.358       .  S
C716        C717   1.422       .  A
C716        F721   1.358       .  S
C717        C718   1.406       .  A
C718        F719   1.357       .  S
C723        C724   1.405       .  A
C723        C728   1.398       .  A
C723        F730   1.358       .  S
C724        C725   1.419       .  A
C725        C726   1.397       .  A
C725       F1564   1.358       .  S
C726        C727   1.394       .  A
C726        F731   1.358       .  S
C727        C728   1.408       .  A
C728        F729   1.358       .  S
F732       C1557   1.358       .  S
C733        C734   1.416   1_665  A
C733       C1570   1.401       .  A
C733        F740   1.358       .  S
C734       C1567   1.400       .  A
C735        C736   1.403   1_455  A
C735       C1566   1.403   1_554  A
C735        F742   1.358       .  S
C736        C737   1.419   1_545  A
C736        F741   1.358       .  S
C737        C738   1.401       .  A
C738       C1565   1.403   1_554  A
C738        F739   1.358       .  S
C743        C744   1.407       .  A
C743        C748   1.410   1_655  A
C743        F750   1.357       .  S
C744        C745   1.407   1_565  A
C745        C746   1.390       .  A
C745        F752   1.359       .  S
C746        C747   1.404   1_655  A
C746        F751   1.359       .  S
C747        C748   1.410   1_545  A
C748        F749   1.358       .  S
C753        C754   1.407       .  A
C753        C758   1.403       .  A
C753        F760   1.357       .  S
C754        C755   1.415       .  A
C755        C756   1.399       .  A
C755        F762   1.358       .  S
C756        C757   1.399       .  A
C756        F761   1.358       .  S
C757        C758   1.407       .  A
C758        F759   1.358       .  S
C763        C764   1.411       .  A
C763        C768   1.402       .  A
C763        F770   1.358       .  S
C764        C765   1.395       .  A
C765        C766   1.397       .  A
C765        F772   1.358       .  S
C766        C767   1.420       .  A
C766        F771   1.358       .  S
C767        C768   1.402       .  A
C768        F769   1.357       .  S
C773        C774   1.415       .  A
C773        C778   1.399       .  A
C773        F780   1.358       .  S
C774        C775   1.406       .  A
C775        C776   1.396       .  A
C775        F782   1.357       .  S
C776        C777   1.403       .  A
C776        F781   1.358       .  S
C777        C778   1.400       .  A
C778        F779   1.358       .  S
C783        C784   1.403       .  A
C783        C788   1.397       .  A
C783        F790   1.358       .  S
C784        C785   1.418   1_565  A
C785        C786   1.404       .  A
C785        F792   1.358       .  S
C786        C787   1.404       .  A
C786        F791   1.357       .  S
C787        C788   1.420   1_545  A
C788        F789   1.358       .  S
C793        C798   1.395       .  A
C793       C1626   1.408   1_554  A
C793        F800   1.358   1_554  S
C794        C795   1.401   1_545  A
C794       C1625   1.411       .  A
C795       C1628   1.396       .  A
C795        F802   1.358       .  S
C796        C797   1.408       .  A
C796       C1627   1.397   1_554  A
C796       F1633   1.358       .  S
C797        C798   1.400   1_565  A
C798        F799   1.358       .  S
F801       C1628   1.359       .  S
C803        C804   1.399       .  A
C803        C808   1.401       .  A
C803        F810   1.358       .  S
C804        C805   1.413       .  A
C805        C806   1.402       .  A
C805        F812   1.358       .  S
C806        C807   1.402       .  A
C806        F811   1.358       .  S
C807        C808   1.417       .  A
C808        F809   1.358   1_545  S
C813        C814   1.406       .  A
C813        C818   1.396       .  A
C813        F820   1.358       .  S
C814        C815   1.395       .  A
C815        C816   1.398       .  A
C815        F822   1.358       .  S
C816        C817   1.420       .  A
C816        F821   1.358       .  S
C817        C818   1.404       .  A
C818        F819   1.358       .  S
C823        C824   1.403       .  A
C823        C828   1.398       .  A
C823        F830   1.358       .  S
C824        C825   1.401       .  A
C825        C826   1.399       .  A
C825        F832   1.358       .  S
C826        C827   1.413       .  A
C826        F831   1.358       .  S
C827        C828   1.407       .  A
C828        F829   1.357       .  S
O833        C848   1.256   1_565  A
O833       Al841   1.871       .  S
C834        O844   1.253       .  A
C834        O835   1.271       .  A
C834       C1659   1.489       .  S
O835       Al837   1.948       .  S
O836        C838   1.245       .  A
O836       Al837   1.835       .  S
Al837       O845   1.863       .  S
Al837       O847   1.979   1_565  S
Al837       O846   1.760       .  S
C838        O851   1.274       .  A
C838       C1629   1.459       .  S
O839        C849   1.254       .  A
O839       Al841   1.860       .  S
O840        C853   1.258       .  A
O840       Al850   1.867       .  S
Al841       O854   1.955       .  S
Al841       O851   1.984       .  S
Al841       O846   1.762       .  S
O842        C849   1.275       .  A
O842       Al850   1.980       .  S
O843        C852   1.281       .  A
O843       Al850   1.987       .  S
O844       Al850   1.862       .  S
O845        C852   1.257       .  A
O846       Al850   1.765       .  S
O847        C848   1.276       .  A
C848       C1639   1.490       .  S
C849       C1609   1.469       .  S
C852       C1616   1.492       .  S
C853        O854   1.274       .  A
C853       C1646   1.473       .  S
O855        C870   1.252   1_545  A
O855       Al863   1.861       .  S
C856        O866   1.255   1_655  A
C856        O857   1.275       .  A
C856       C1586   1.489       .  S
O857       Al859   1.959   1_655  S
O858        C860   1.242       .  A
O858       Al859   1.816       .  S
Al859       O867   1.858       .  S
Al859       O869   1.984   1_545  S
Al859       O868   1.760       .  S
C860        O873   1.276       .  A
C860       C1579   1.461       .  S
O861        C871   1.255       .  A
O861       Al863   1.864       .  S
O862        C875   1.258       .  A
O862       Al872   1.864       .  S
Al863       O876   1.967       .  S
Al863       O873   2.004       .  S
Al863       O868   1.761       .  S
O864        C871   1.277       .  A
O864       Al872   1.988       .  S
O865        C874   1.281       .  A
O865       Al872   1.992       .  S
O866       Al872   1.862       .  S
O867        C874   1.255       .  A
O868       Al872   1.766       .  S
O869        C870   1.275       .  A
C870       C1599   1.480       .  S
C871       C1546   1.473       .  S
C874       C1566   1.497       .  S
C875        O876   1.275       .  A
C875       C1559   1.468       .  S
O877        C892   1.254       .  A
O877       Al885   1.859       .  S
C878        O888   1.256       .  A
C878        O879   1.275       .  A
C878       C1506   1.492       .  S
O879       Al881   1.949       .  S
O880        C882   1.244       .  A
O880       Al881   1.841       .  S
Al881       O889   1.871       .  S
Al881       O891   1.976       .  S
Al881       O890   1.759       .  S
C882        O895   1.276       .  A
C882       C1526   1.469       .  S
O883        C893   1.256       .  A
O883       Al885   1.875       .  S
O884        C897   1.259       .  A
O884       Al894   1.865       .  S
Al885       O898   1.974       .  S
Al885       O895   1.997       .  S
Al885       O890   1.755       .  S
O886        C893   1.275       .  A
O886       Al894   1.985       .  S
O887        C896   1.280       .  A
O887       Al894   1.985       .  S
O888       Al894   1.866       .  S
O889        C896   1.256       .  A
O890       Al894   1.769       .  S
O891        C892   1.275       .  A
C892       C1649   1.478       .  S
C893       C1539   1.477       .  S
C896       C1519   1.495       .  S
C897        O898   1.279       .  A
C897       C1596   1.473       .  S
O899        C914   1.272       .  A
O899       Al907   1.947       .  S
C900        O910   1.265       .  A
C900        O901   1.258       .  A
C900       C1536   1.495       .  S
O901       Al903   1.896   1_455  S
O902        C904   1.271       .  A
O902       Al903   1.966       .  S
Al903       O911   1.938       .  S
Al903       O913   1.859       .  S
Al903       O912   1.785       .  S
C904        O917   1.248       .  A
C904       C1489   1.477       .  S
O905        C915   1.269       .  A
O905       Al907   1.959       .  S
O906        C919   1.275       .  A
O906       Al916   1.941   1_545  S
Al907       O920   1.855       .  S
Al907       O917   1.837       .  S
Al907       O912   1.777       .  S
O908        C915   1.244       .  A
O908       Al916   1.829       .  S
O909        C918   1.254       .  A
O909       Al916   1.883       .  S
O910       Al916   1.927   1_455  S
O911        C918   1.267       .  A
O912       Al916   1.790       .  S
O913        C914   1.254       .  A
C914       C1479   1.484       .  S
C915       C1576   1.461       .  S
C918       C1569   1.495       .  S
C919        O920   1.254   1_545  A
C919       C1496   1.475       .  S
O921        C936   1.279       .  A
O921       Al929   1.992       .  S
C922        O932   1.271       .  A
C922        O923   1.254       .  A
C922       C1469   1.479       .  S
O923       Al925   1.858       .  S
O924        C926   1.279       .  A
O924       Al925   1.997       .  S
Al925       O933   1.992       .  S
Al925       O935   1.855       .  S
Al925       O934   1.761       .  S
C926        O939   1.252       .  A
C926       C1589   1.473       .  S
O927        C937   1.281       .  A
O927       Al929   2.014       .  S
O928        C941   1.274       .  A
O928       Al938   1.974       .  S
Al929       O942   1.867       .  S
Al929       O939   1.854       .  S
Al929       O934   1.756       .  S
O930        C937   1.247       .  A
O930       Al938   1.836       .  S
O931        C940   1.256       .  A
O931       Al938   1.848       .  S
O932       Al938   1.945       .  S
O933        C940   1.282       .  A
O934       Al938   1.758       .  S
O935        C936   1.252       .  A
C936       C1499   1.471       .  S
C937       C1456   1.475       .  S
C940       C1446   1.487       .  S
C941        O942   1.254       .  A
C941       C1436   1.477       .  S
O943        C958   1.277       .  A
O943       Al951   1.975       .  S
C944        O954   1.274       .  A
C944        O945   1.253       .  A
C944       C1549   1.494       .  S
O945       Al947   1.861       .  S
O946        C948   1.274       .  A
O946       Al947   1.975       .  S
Al947       O955   1.979       .  S
Al947       O957   1.878       .  S
Al947       O956   1.771       .  S
C948        O961   1.252       .  A
C948       C1419   1.463       .  S
O949        C959   1.274       .  A
O949       Al951   1.992       .  S
O950        C963   1.277       .  A
O950       Al960   1.987       .  S
Al951       O964   1.871       .  S
Al951       O961   1.859       .  S
Al951       O956   1.761       .  S
O952        C959   1.243       .  A
O952       Al960   1.832       .  S
O953        C962   1.257       .  A
O953       Al960   1.860       .  S
O954       Al960   1.958       .  S
O955        C962   1.278       .  A
O956       Al960   1.760       .  S
O957        C958   1.259       .  A
C958       C1426   1.475       .  S
C959       C1409   1.464       .  S
C962       C1396   1.496       .  S
C963        O964   1.257       .  A
C963       C1386   1.487       .  S
O965        C980   1.275       .  A
O965       Al973   1.972       .  S
C966        O976   1.268       .  A
C966        O967   1.251   1_655  A
C966       C1346   1.481       .  S
O967       Al969   1.864       .  S
O968        C970   1.276       .  A
O968       Al969   1.976       .  S
Al969       O977   1.985       .  S
Al969       O979   1.864       .  S
Al969       O978   1.764       .  S
C970        O983   1.255       .  A
C970       C1509   1.472       .  S
O971        C981   1.279       .  A
O971       Al973   2.004       .  S
O972        C985   1.274       .  A
O972       Al982   1.977       .  S
Al973       O986   1.881       .  S
Al973       O983   1.853       .  S
Al973       O978   1.765       .  S
O974        C981   1.246       .  A
O974       Al982   1.838       .  S
O975        C984   1.257       .  A
O975       Al982   1.849       .  S
O976       Al982   1.940   1_655  S
O977        C984   1.281       .  A
O978       Al982   1.762       .  S
O979        C980   1.254       .  A
C980       C1376   1.473       .  S
C981       C1366   1.468       .  S
C984       C1356   1.490       .  S
C985        O986   1.258       .  A
C985       C1429   1.495       .  S
O987       C1002   1.257       .  A
O987       Al995   1.873       .  S
C988        O998   1.251   1_455  A
C988        O989   1.271       .  A
C988       C1416   1.483       .  S
O989       Al991   1.949   1_455  S
O990        C992   1.246       .  A
O990       Al991   1.842       .  S
Al991       O999   1.859       .  S
Al991      O1001   1.986       .  S
Al991      O1000   1.758       .  S
C992       O1005   1.275       .  A
C992       C1369   1.465       .  S
O993       C1003   1.254       .  A
O993       Al995   1.852       .  S
O994       C1007   1.256       .  A
O994      Al1004   1.870       .  S
Al995      O1008   1.966       .  S
Al995      O1005   1.992       .  S
Al995      O1000   1.764       .  S
O996       C1003   1.273       .  A
O996      Al1004   1.965       .  S
O997       C1006   1.278       .  A
O997      Al1004   1.973       .  S
O998      Al1004   1.859       .  S
O999       C1006   1.257       .  A
O1000     Al1004   1.767       .  S
O1001      C1002   1.277       .  A
C1002      C1326   1.489       .  S
C1003      C1466   1.457       .  S
C1006      C1359   1.484       .  S
C1007      O1008   1.273       .  A
C1007      C1336   1.469       .  S
O1009     Al1017   1.959       .  S
C1010      O1020   1.271       .  A
C1010      C1606   1.489       .  S
O1011     Al1013   1.858   1_554  S
O1012      C1014   1.276       .  A
Al1013     O1021   1.998       .  S
Al1013     O1023   1.861       .  S
C1014      O1027   1.255       .  A
C1014      C1316   1.469       .  S
O1015      C1025   1.275       .  A
O1015     Al1017   1.994       .  S
O1016      C1029   1.276       .  A
O1016     Al1026   1.975       .  S
Al1017     O1030   1.871       .  S
Al1017     O1027   1.862       .  S
Al1017     O1022   1.763       .  S
O1018      C1025   1.246       .  A
O1018     Al1026   1.844       .  S
O1019      C1028   1.257       .  A
O1020     Al1026   1.945       .  S
O1021      C1028   1.283       .  A
O1022     Al1026   1.761       .  S
O1023      C1024   1.255       .  A
C1024      C1309   1.467       .  S
C1025      C1529   1.471       .  S
C1028      C1516   1.494       .  S
C1029      O1030   1.256       .  A
C1029      C1379   1.491       .  S
O1031      C1046   1.255   1_554  A
O1031     Al1039   1.868   1_554  S
C1032      O1042   1.252       .  A
C1032      O1033   1.272       .  A
O1034      C1036   1.245       .  A
O1034     Al1035   1.841   1_556  S
Al1035     O1045   1.976   1_554  S
C1036      O1049   1.278       .  A
C1036      C1459   1.472       .  S
O1037      C1047   1.253       .  A
O1037     Al1039   1.857       .  S
O1038      C1051   1.256       .  A
O1038     Al1048   1.862       .  S
Al1039     O1049   2.000       .  S
O1040     Al1048   1.986       .  S
O1041      C1050   1.280       .  A
O1041     Al1048   1.981       .  S
O1042     Al1048   1.849       .  S
O1043      C1050   1.255       .  A
O1044     Al1048   1.765       .  S
O1045      C1046   1.276       .  A
C1046      C1339   1.489       .  S
C1047      C1276   1.468       .  S
C1050      C1449   1.486       .  S
C1051      O1052   1.276       .  A
C1051      C1286   1.466       .  S
O1053      C1068   1.275       .  A
O1053     Al1061   1.966       .  S
C1054      O1064   1.269       .  A
C1054      O1055   1.253       .  A
C1054      C1279   1.488       .  S
O1055     Al1057   1.869       .  S
O1056      C1058   1.280       .  A
O1056     Al1057   1.991       .  S
Al1057     O1065   2.007       .  S
Al1057     O1067   1.877       .  S
Al1057     O1066   1.763       .  S
C1058      O1071   1.255       .  A
C1058      C1266   1.479       .  S
O1059      C1069   1.279       .  A
O1059     Al1061   2.009       .  S
O1060      C1073   1.274       .  A
O1060     Al1070   1.975       .  S
Al1061     O1074   1.868       .  S
Al1061     O1071   1.856       .  S
Al1061     O1066   1.763       .  S
O1062      C1069   1.246       .  A
O1062     Al1070   1.838       .  S
O1063      C1072   1.255       .  A
O1063     Al1070   1.849       .  S
O1064     Al1070   1.945       .  S
O1065      C1072   1.285       .  A
O1066     Al1070   1.766       .  S
O1067      C1068   1.258       .  A
C1068      C1389   1.488       .  S
C1069      C1256   1.470       .  S
C1072      C1246   1.499       .  S
C1073      O1074   1.253       .  A
C1073      C1306   1.484       .  S
O1075      C1090   1.254   1_554  A
O1075     Al1083   1.865   1_554  S
C1076      O1086   1.251       .  A
C1076      O1077   1.270       .  A
O1078      C1080   1.244       .  A
O1078     Al1079   1.833   1_556  S
Al1079     O1089   1.978   1_554  S
C1080      O1093   1.278       .  A
C1080      C1406   1.467       .  S
O1081      C1091   1.253       .  A
O1081     Al1083   1.858       .  S
O1082      C1095   1.256       .  A
O1082     Al1092   1.865       .  S
Al1083     O1093   2.006       .  S
O1084     Al1092   1.979       .  S
O1085      C1094   1.280       .  A
O1085     Al1092   1.983       .  S
O1086     Al1092   1.852       .  S
O1087      C1094   1.256       .  A
O1088     Al1092   1.766       .  S
O1089      C1090   1.275       .  A
C1090      C1556   1.483       .  S
C1091      C1239   1.469       .  S
C1094      C1399   1.495       .  S
C1095      O1096   1.274       .  A
C1095      C1636   1.471       .  S
O1097      C1112   1.274       .  A
O1097     Al1105   1.961       .  S
C1098      O1108   1.272       .  A
C1098      O1099   1.253       .  A
C1098      C1236   1.486       .  S
O1099     Al1101   1.858       .  S
O1100      C1102   1.277       .  A
O1100     Al1101   1.986       .  S
Al1101     O1109   1.990       .  S
Al1101     O1111   1.857       .  S
Al1101     O1110   1.765       .  S
C1102      O1115   1.255       .  A
C1102      C1299   1.475       .  S
O1103      C1113   1.276       .  A
O1103     Al1105   1.990       .  S
O1104      C1117   1.276       .  A
O1104     Al1114   1.985   1_565  S
Al1105     O1118   1.873       .  S
Al1105     O1115   1.860       .  S
Al1105     O1110   1.763       .  S
O1106      C1113   1.246       .  A
O1106     Al1114   1.835       .  S
O1107      C1116   1.257       .  A
O1107     Al1114   1.860       .  S
O1108     Al1114   1.955       .  S
O1109      C1116   1.281       .  A
O1110     Al1114   1.761       .  S
O1111      C1112   1.255       .  A
C1112      C1439   1.469       .  S
C1113      C1626   1.461       .  S
C1116      C1619   1.493       .  S
C1117      O1118   1.255   1_565  A
C1117      C1226   1.493       .  S
O1119     Al1127   1.964       .  S
C1120      O1130   1.271       .  A
C1120      C1199   1.489       .  S
O1121     Al1123   1.860   1_554  S
O1122      C1124   1.275       .  A
Al1123     O1131   1.983       .  S
Al1123     O1133   1.869       .  S
C1124      O1137   1.254       .  A
C1124      C1656   1.468       .  S
O1125      C1135   1.278       .  A
O1125     Al1127   2.004       .  S
O1126      C1139   1.274       .  A
O1126     Al1136   1.966       .  S
Al1127     O1140   1.875       .  S
Al1127     O1137   1.856       .  S
Al1127     O1132   1.765       .  S
O1128      C1135   1.246       .  A
O1128     Al1136   1.835       .  S
O1129      C1138   1.256       .  A
O1130     Al1136   1.951       .  S
O1131      C1138   1.279       .  A
O1132     Al1136   1.759       .  S
O1133      C1134   1.258       .  A
C1134      C1229   1.476       .  S
C1135      C1216   1.468       .  S
C1138      C1206   1.487       .  S
C1139      O1140   1.254       .  A
C1139      C1476   1.488       .  S
O1141      C1156   1.256       .  A
O1141     Al1149   1.869       .  S
C1142      O1152   1.253       .  A
C1142      O1143   1.274       .  A
C1142      C1486   1.487       .  S
O1143     Al1145   1.957       .  S
O1144      C1146   1.244       .  A
O1144     Al1145   1.843       .  S
Al1145     O1153   1.864       .  S
Al1145     O1155   1.987       .  S
Al1145     O1154   1.759       .  S
C1146      O1159   1.274       .  A
C1146      C1219   1.468       .  S
O1147      C1157   1.253       .  A
O1147     Al1149   1.858       .  S
O1148      C1161   1.260       .  A
O1148     Al1158   1.874       .  S
Al1149     O1162   1.970       .  S
Al1149     O1159   1.995       .  S
Al1149     O1154   1.762       .  S
O1150      C1157   1.272       .  A
O1150     Al1158   1.968       .  S
O1151      C1160   1.278       .  A
O1151     Al1158   1.976       .  S
O1152     Al1158   1.869       .  S
O1153      C1160   1.257       .  A
O1154     Al1158   1.776       .  S
O1155      C1156   1.277       .  A
C1156      C1186   1.482       .  S
C1157      C1349   1.459       .  S
C1160      C1209   1.487       .  S
C1161      O1162   1.276       .  A
C1161      C1329   1.478       .  S
O1163      C1178   1.255       .  A
O1163     Al1171   1.868       .  S
C1164      O1174   1.253       .  A
C1164      O1165   1.272       .  A
C1164      C1319   1.491       .  S
O1165     Al1167   1.947       .  S
O1166      C1168   1.246       .  A
O1166     Al1167   1.846       .  S
Al1167     O1175   1.858       .  S
Al1167     O1177   1.979       .  S
Al1167     O1176   1.763       .  S
C1168      O1181   1.278       .  A
C1168      C1259   1.473       .  S
O1169      C1179   1.258       .  A
O1169     Al1171   1.871       .  S
O1170      C1183   1.257       .  A
O1170     Al1180   1.872       .  S
Al1171     O1184   1.974       .  S
Al1171     O1181   2.009       .  S
Al1171     O1176   1.760       .  S
O1172      C1179   1.278       .  A
O1172     Al1180   1.986       .  S
O1173      C1182   1.282       .  A
O1173     Al1180   1.995       .  S
O1174     Al1180   1.866       .  S
O1175      C1182   1.255       .  A
O1176     Al1180   1.762       .  S
O1177      C1178   1.276       .  A
C1178      C1289   1.486       .  S
C1179      C1196   1.474       .  S
C1182      C1249   1.497       .  S
C1183      O1184   1.276       .  A
C1183      C1189   1.490       .  S
C1185      C1186   1.398       .  A
C1185      C1190   1.404       .  A
C1185      F1192   1.357       .  S
C1186      C1187   1.413       .  A
C1187      C1188   1.399       .  A
C1187      F1194   1.357       .  S
C1188      C1189   1.402       .  A
C1188      F1193   1.358       .  S
C1189      C1190   1.419       .  A
C1190      F1191   1.358       .  S
C1195      C1196   1.401       .  A
C1195      C1200   1.402       .  A
C1195      F1202   1.358       .  S
C1196      C1197   1.407       .  A
C1197      C1198   1.404       .  A
C1197      F1204   1.358       .  S
C1198      C1199   1.409       .  A
C1198      F1203   1.358       .  S
C1199      C1200   1.413       .  A
C1200      F1201   1.358       .  S
C1205      C1206   1.415       .  A
C1205      C1210   1.400       .  A
C1205      F1212   1.358       .  S
C1206      C1207   1.403       .  A
C1207      C1208   1.403       .  A
C1207      F1214   1.358       .  S
C1208      C1209   1.415       .  A
C1208      F1213   1.358       .  S
C1209      C1210   1.402       .  A
C1210      F1211   1.358       .  S
C1215      C1216   1.403       .  A
C1215      C1220   1.401       .  A
C1215      F1222   1.356       .  S
C1216      C1217   1.409       .  A
C1217      C1218   1.399       .  A
C1217      F1224   1.358       .  S
C1218      C1219   1.403       .  A
C1218      F1223   1.357       .  S
C1219      C1220   1.408       .  A
C1220      F1221   1.357       .  S
C1225      C1226   1.421       .  A
C1225      C1230   1.402       .  A
C1225      F1232   1.358       .  S
C1226      C1227   1.405       .  A
C1227      C1228   1.401       .  A
C1227      F1234   1.358       .  S
C1228      C1229   1.410       .  A
C1228      F1233   1.358       .  S
C1229      C1230   1.396       .  A
C1230      F1231   1.358       .  S
C1235      C1236   1.415       .  A
C1235      C1240   1.400       .  A
C1235      F1242   1.358       .  S
C1236      C1237   1.406       .  A
C1237      C1238   1.401       .  A
C1237      F1244   1.358       .  S
C1238      C1239   1.407       .  A
C1238      F1243   1.358       .  S
C1239      C1240   1.400       .  A
C1240      F1241   1.357       .  S
C1245      C1246   1.421       .  A
C1245      C1250   1.404       .  A
C1245      F1252   1.358       .  S
C1246      C1247   1.403       .  A
C1247      C1248   1.406       .  A
C1247      F1254   1.358       .  S
C1248      C1249   1.419       .  A
C1248      F1253   1.358       .  S
C1249      C1250   1.401       .  A
C1250      F1251   1.358       .  S
C1255      C1260   1.402       .  A
C1255      F1262   1.358       .  S
C1256      C1257   1.403       .  A
C1257      C1258   1.401   1_556  A
C1257      F1264   1.357       .  S
C1258      F1263   1.359       .  S
C1259      C1260   1.403       .  A
C1260      F1261   1.356       .  S
C1265      C1266   1.411       .  A
C1265      C1270   1.402       .  A
C1265      F1272   1.358       .  S
C1266      C1267   1.397       .  A
C1267      C1268   1.403       .  A
C1267      F1274   1.358       .  S
C1268      C1269   1.421       .  A
C1268      F1273   1.357       .  S
C1269      C1270   1.406       .  A
C1275      C1276   1.400       .  A
C1275      C1280   1.401       .  A
C1275      F1282   1.358       .  S
C1276      C1277   1.406       .  A
C1277      C1278   1.401       .  A
C1277      F1284   1.358       .  S
C1278      C1279   1.408       .  A
C1278      F1283   1.358       .  S
C1279      C1280   1.415       .  A
C1280      F1281   1.358       .  S
C1285      C1286   1.394       .  A
C1285      C1290   1.397       .  A
C1285      F1292   1.358       .  S
C1286      C1287   1.408       .  A
C1287      C1288   1.399       .  A
C1287      F1294   1.358       .  S
C1288      C1289   1.405       .  A
C1288      F1293   1.358       .  S
C1289      C1290   1.420       .  A
C1290      F1291   1.358       .  S
C1295      C1296   1.420       .  A
C1295      C1300   1.404       .  A
C1295      F1302   1.358       .  S
C1296      C1297   1.407       .  A
C1297      C1298   1.400       .  A
C1297      F1304   1.358       .  S
C1298      C1299   1.408       .  A
C1298      F1303   1.358       .  S
C1299      C1300   1.398       .  A
C1300      F1301   1.358       .  S
C1305      C1306   1.420       .  A
C1305      C1310   1.397       .  A
C1305      F1312   1.358       .  S
C1306      C1307   1.403       .  A
C1307      C1308   1.398       .  A
C1307      F1314   1.358       .  S
C1308      C1309   1.409       .  A
C1308      F1313   1.358       .  S
C1309      C1310   1.394       .  A
C1310      F1311   1.358       .  S
C1315      C1316   1.398       .  A
C1315      C1320   1.403       .  A
C1315      F1322   1.358       .  S
C1316      C1317   1.406       .  A
C1317      C1318   1.399       .  A
C1317      F1324   1.358       .  S
C1318      C1319   1.407       .  A
C1318      F1323   1.357       .  S
C1319      C1320   1.419       .  A
C1320      F1321   1.358       .  S
C1325      C1326   1.418       .  A
C1325      C1330   1.399       .  A
C1325      F1332   1.357       .  S
C1326      C1327   1.404       .  A
C1327      C1328   1.404       .  A
C1327      F1334   1.358       .  S
C1328      C1329   1.412       .  A
C1328      F1333   1.358       .  S
C1329      C1330   1.396       .  A
C1330      F1331   1.358       .  S
C1335      C1336   1.395       .  A
C1335      C1340   1.401       .  A
C1335      F1342   1.358       .  S
C1336      C1337   1.407       .  A
C1337      C1338   1.397       .  A
C1337      F1344   1.357       .  S
C1338      C1339   1.406       .  A
C1339      C1340   1.420       .  A
C1340      F1341   1.358       .  S
C1345      C1346   1.415       .  A
C1345      C1350   1.399       .  A
C1345      F1352   1.358       .  S
C1346      C1347   1.406       .  A
C1347      C1348   1.396       .  A
C1347      F1354   1.358       .  S
C1348      C1349   1.404       .  A
C1348      F1353   1.358       .  S
C1349      C1350   1.398       .  A
C1350      F1351   1.358       .  S
C1355      C1356   1.403   1_655  A
C1355      F1362   1.357       .  S
C1356      C1357   1.417       .  A
C1357      C1358   1.398   1_455  A
C1357      F1364   1.359       .  S
C1358      F1363   1.358   1_655  S
C1359      C1360   1.414       .  A
C1360      F1361   1.358       .  S
C1365      C1366   1.413   1_655  A
C1365      C1370   1.397       .  A
C1365      F1372   1.358       .  S
C1366      C1367   1.399       .  A
C1367      C1368   1.397       .  A
C1367      F1374   1.356       .  S
C1368      C1369   1.410   1_455  A
C1368      F1373   1.357       .  S
C1369      C1370   1.400       .  A
C1370      F1371   1.358       .  S
C1375      C1376   1.397       .  A
C1375      C1380   1.403       .  A
C1375      F1382   1.358       .  S
C1376      C1377   1.408       .  A
C1377      C1378   1.398       .  A
C1377      F1384   1.358       .  S
C1378      C1379   1.405       .  A
C1379      C1380   1.421       .  A
C1380      F1381   1.358       .  S
C1385      C1386   1.401       .  A
C1385      C1390   1.405       .  A
C1385      F1392   1.357       .  S
C1386      C1387   1.415       .  A
C1387      C1388   1.400       .  A
C1387      F1394   1.358       .  S
C1388      C1389   1.401       .  A
C1388      F1393   1.358       .  S
C1389      C1390   1.416       .  A
C1390      F1391   1.358       .  S
C1395      C1396   1.404       .  A
C1395      C1400   1.401       .  A
C1395      F1402   1.358       .  S
C1396      C1397   1.419       .  A
C1397      C1398   1.401       .  A
C1397      F1404   1.358       .  S
C1398      C1399   1.403       .  A
C1398      F1403   1.357       .  S
C1399      C1400   1.419       .  A
C1400      F1401   1.359       .  S
C1405      C1406   1.402       .  A
C1405      C1410   1.398       .  A
C1405      F1412   1.358       .  S
C1406      C1407   1.413       .  A
C1407      C1408   1.398       .  A
C1407      F1414   1.359       .  S
C1408      C1409   1.400       .  A
C1408      F1413   1.358       .  S
C1409      C1410   1.411       .  A
C1410      F1411   1.358       .  S
C1415      C1416   1.414       .  A
C1415      C1420   1.401       .  A
C1415      F1422   1.358       .  S
C1416      C1417   1.405       .  A
C1417      C1418   1.398       .  A
C1417      F1424   1.357       .  S
C1418      C1419   1.404       .  A
C1418      F1423   1.358       .  S
C1419      C1420   1.401       .  A
C1420      F1421   1.358       .  S
C1425      C1426   1.397       .  A
C1425      C1430   1.402       .  A
C1425      F1432   1.357       .  S
C1426      C1427   1.407       .  A
C1427      C1428   1.402       .  A
C1427      F1434   1.358       .  S
C1428      C1429   1.410       .  A
C1428      F1433   1.358       .  S
C1429      C1430   1.418       .  A
C1430      F1431   1.358       .  S
C1435      C1436   1.417       .  A
C1435      C1440   1.394       .  A
C1435      F1442   1.357       .  S
C1436      C1437   1.400       .  A
C1437      C1438   1.398       .  A
C1437      F1444   1.358       .  S
C1438      C1439   1.413       .  A
C1438      F1443   1.358       .  S
C1439      C1440   1.395       .  A
C1440      F1441   1.358       .  S
C1445      C1446   1.402       .  A
C1445      C1450   1.403       .  A
C1445      F1452   1.358       .  S
C1446      C1447   1.416       .  A
C1447      C1448   1.398       .  A
C1447      F1454   1.358       .  S
C1448      C1449   1.401       .  A
C1448      F1453   1.358       .  S
C1449      C1450   1.417       .  A
C1450      F1451   1.358       .  S
C1455      C1456   1.413       .  A
C1455      C1460   1.397       .  A
C1455      F1462   1.357       .  S
C1456      C1457   1.402       .  A
C1457      C1458   1.401       .  A
C1457      F1464   1.358       .  S
C1458      C1459   1.415       .  A
C1458      F1463   1.358       .  S
C1459      C1460   1.398       .  A
C1460      F1461   1.357       .  S
C1465      C1466   1.397       .  A
C1465      C1470   1.397       .  A
C1465      F1472   1.358       .  S
C1466      C1467   1.404       .  A
C1467      C1468   1.396       .  A
C1467      F1474   1.358       .  S
C1468      C1469   1.406       .  A
C1468      F1473   1.358       .  S
C1469      C1470   1.415       .  A
C1470      F1471   1.358       .  S
C1475      C1476   1.419       .  A
C1475      C1480   1.405       .  A
C1475      F1482   1.358       .  S
C1476      C1477   1.401       .  A
C1477      C1478   1.393       .  A
C1477      F1484   1.358       .  S
C1478      C1479   1.415       .  A
C1478      F1483   1.359       .  S
C1479      C1480   1.401       .  A
C1480      F1481   1.358       .  S
C1485      C1486   1.416       .  A
C1485      C1490   1.410       .  A
C1485      F1492   1.358       .  S
C1486      C1487   1.402       .  A
C1487      C1488   1.395       .  A
C1487      F1494   1.356       .  S
C1488      C1489   1.409       .  A
C1488      F1493   1.359       .  S
C1489      C1490   1.404       .  A
C1490      F1491   1.358       .  S
C1495      C1496   1.415       .  A
C1495      C1500   1.403       .  A
C1495      F1502   1.358       .  S
C1496      C1497   1.403       .  A
C1497      C1498   1.400       .  A
C1497      F1504   1.358       .  S
C1498      C1499   1.408       .  A
C1498      F1503   1.358       .  S
C1499      C1500   1.400       .  A
C1500      F1501   1.358       .  S
C1505      C1506   1.406       .  A
C1505      C1510   1.399       .  A
C1505      F1512   1.357       .  S
C1506      C1507   1.421       .  A
C1507      C1508   1.401       .  A
C1507      F1514   1.358       .  S
C1508      C1509   1.397       .  A
C1508      F1513   1.358       .  S
C1509      C1510   1.408       .  A
C1510      F1511   1.358       .  S
C1515      C1516   1.404       .  A
C1515      C1520   1.407       .  A
C1515      F1522   1.358       .  S
C1516      C1517   1.417       .  A
C1517      C1518   1.401       .  A
C1517      F1524   1.358       .  S
C1518      C1519   1.402       .  A
C1518      F1523   1.358       .  S
C1519      C1520   1.418       .  A
C1520      F1521   1.358       .  S
C1525      C1526   1.412       .  A
C1525      C1530   1.401       .  A
C1525      F1532   1.358       .  S
C1526      C1527   1.402       .  A
C1527      C1528   1.399       .  A
C1527      F1534   1.358       .  S
C1528      C1529   1.410       .  A
C1528      F1533   1.357       .  S
C1529      C1530   1.401       .  A
C1530      F1531   1.357       .  S
C1535      C1536   1.416       .  A
C1535      C1540   1.400       .  A
C1535      F1542   1.358       .  S
C1536      C1537   1.409       .  A
C1537      C1538   1.404       .  A
C1537      F1544   1.356       .  S
C1538      C1539   1.407       .  A
C1538      F1543   1.357       .  S
C1539      C1540   1.402       .  A
C1540      F1541   1.358       .  S
C1545      C1546   1.409       .  A
C1545      C1550   1.405       .  A
C1545      F1552   1.358       .  S
C1546      C1547   1.398       .  A
C1547      C1548   1.400       .  A
C1547      F1554   1.358       .  S
C1548      C1549   1.417       .  A
C1548      F1553   1.358       .  S
C1549      C1550   1.409       .  A
C1550      F1551   1.358       .  S
C1555      C1556   1.402       .  A
C1555      C1560   1.397       .  A
C1555      F1562   1.358       .  S
C1556      C1557   1.420       .  A
C1557      C1558   1.398       .  A
C1558      C1559   1.395       .  A
C1558      F1563   1.358       .  S
C1559      C1560   1.409       .  A
C1560      F1561   1.358       .  S
C1565      C1566   1.421   1_665  A
C1565      F1572   1.358       .  S
C1567      C1568   1.402       .  A
C1567      F1574   1.358       .  S
C1568      C1569   1.420   1_445  A
C1568      F1573   1.358       .  S
C1569      C1570   1.404       .  A
C1570      F1571   1.358       .  S
C1575      C1576   1.404       .  A
C1575      C1580   1.406   1_655  A
C1575      F1582   1.358       .  S
C1576      C1577   1.406   1_565  A
C1577      C1578   1.393       .  A
C1577      F1584   1.357       .  S
C1578      C1579   1.404   1_655  A
C1578      F1583   1.359       .  S
C1579      C1580   1.408   1_545  A
C1580      F1581   1.358       .  S
C1585      C1586   1.408       .  A
C1585      C1590   1.404       .  A
C1585      F1592   1.357       .  S
C1586      C1587   1.414       .  A
C1587      C1588   1.402       .  A
C1587      F1594   1.358       .  S
C1588      C1589   1.401       .  A
C1588      F1593   1.358       .  S
C1589      C1590   1.408       .  A
C1590      F1591   1.358       .  S
C1595      C1596   1.413       .  A
C1595      C1600   1.400       .  A
C1595      F1602   1.358       .  S
C1596      C1597   1.395       .  A
C1597      C1598   1.396       .  A
C1597      F1604   1.358       .  S
C1598      C1599   1.418       .  A
C1598      F1603   1.357       .  S
C1599      C1600   1.399       .  A
C1600      F1601   1.357       .  S
C1605      C1606   1.415       .  A
C1605      C1610   1.402       .  A
C1605      F1612   1.358       .  S
C1606      C1607   1.408       .  A
C1607      C1608   1.401       .  A
C1607      F1614   1.357       .  S
C1608      C1609   1.405       .  A
C1608      F1613   1.358       .  S
C1609      C1610   1.400       .  A
C1610      F1611   1.358       .  S
C1615      C1616   1.403       .  A
C1615      C1620   1.402       .  A
C1615      F1622   1.358       .  S
C1616      C1617   1.417   1_565  A
C1617      C1618   1.404       .  A
C1617      F1624   1.358       .  S
C1618      C1619   1.403       .  A
C1618      F1623   1.357       .  S
C1619      C1620   1.417   1_545  A
C1620      F1621   1.358       .  S
C1625      C1630   1.394       .  A
C1625      F1632   1.358       .  S
C1626      C1627   1.402   1_545  A
C1627      F1634   1.357       .  S
C1628      C1629   1.411       .  A
C1629      C1630   1.399   1_565  A
C1630      F1631   1.358       .  S
C1635      C1636   1.395       .  A
C1635      C1640   1.399       .  A
C1635      F1642   1.358       .  S
C1636      C1637   1.409       .  A
C1637      C1638   1.400       .  A
C1637      F1644   1.358       .  S
C1638      C1639   1.406       .  A
C1638      F1643   1.358       .  S
C1639      C1640   1.420       .  A
C1640      F1641   1.358       .  S
C1645      C1646   1.413       .  A
C1645      C1650   1.400       .  A
C1645      F1652   1.358       .  S
C1646      C1647   1.397       .  A
C1647      C1648   1.395       .  A
C1647      F1654   1.358       .  S
C1648      C1649   1.416       .  A
C1648      F1653   1.358       .  S
C1649      C1650   1.400       .  A
C1650      F1651   1.357       .  S
C1655      C1656   1.407       .  A
C1655      C1660   1.398       .  A
C1655      F1662   1.358       .  S
C1656      C1657   1.395       .  A
C1657      C1658   1.400       .  A
C1657      F1664   1.358       .  S
C1658      C1659   1.420       .  A
C1658      F1663   1.358       .  S
C1659      C1660   1.406       .  A
C1660      F1661   1.358       .  S
