geometry optimzed in LAMMPS
_audit_creation_date              2020-12-01 
_audit_creation_method            'lammps2cif' 
_symmetry_space_group_name_H-M    'P1' 
_symmetry_Int_Tables_number       1 
_symmetry_cell_setting            triclinic 
loop_ 
_symmetry_equiv_pos_as_xyz 
  x,y,z 
_cell_length_a                    47.2908141 
_cell_length_b                    47.397116313750594 
_cell_length_c                    101.1096275027457 
_cell_angle_alpha                 90.12065699389116 
_cell_angle_beta                  90.02431858155136 
_cell_angle_gamma                 90.02679684865328 
loop_ 
_atom_site_label 
_atom_site_type_symbol 
_atom_site_fract_x 
_atom_site_fract_y 
_atom_site_fract_z 
_atom_site_charge 
Zr1        Zr  0.14420895  0.98883764  0.55021610     2.17500
O2          O  0.14954773  0.03874463  0.54502915    -0.52000
O3          O  0.18640435  0.99238844  0.53644233    -0.75200
O4          O  0.16342534  0.01613291  0.57010508    -0.82000
O5          O  0.10676923  0.97091474  0.51898743    -0.83700
O6          O  0.16793597  0.98650209  0.58764740    -0.79300
O7          O  0.10762589  0.00552024  0.53439414    -0.91000
O8          O  0.21027922  0.95089177  0.53725957    -0.76900
O9          O  0.17260843  0.95639479  0.56225353    -0.86400
O10         O  0.15084733  0.94809177  0.53606392    -0.86100
O11         O  0.11707652  0.97804716  0.56963712    -0.72900
O12         O  0.09924244  0.96745236  0.54524502    -0.85000
Zr13       Zr  0.10706431  0.88546020  0.56280892     2.26400
Zr14       Zr  0.14496323  0.94386866  0.58120606     2.06300
Zr15       Zr  0.10592944  0.92674003  0.53124803     2.10000
Zr16       Zr  0.17980758  0.91657117  0.54824822     1.78800
O17         O  0.06684016  0.93212503  0.51575234    -0.93800
O18         O  0.22160898  0.91547825  0.56233906    -0.41600
O19         O  0.13480157  0.89482422  0.54336197    -0.78200
O20         O  0.15346769  0.90347699  0.56765740    -0.96900
O21         O  0.09939575  0.92550922  0.57651203    -0.90200
O22         O  0.07845913  0.91721280  0.55041915    -0.93100
C23         C  0.20738932  0.97651101  0.53334579     1.00700
C24         C  0.09919038  0.99529894  0.52317316     1.13600
C25         C  0.17114255  0.01053922  0.58223398     1.04400
O26         O  0.18922141  0.92940168  0.59142470    -0.95200
O27         O  0.13325705  0.90663894  0.59640140    -0.91000
O28         O  0.10982787  0.87157456  0.58572084    -0.84100
C29         C  0.12037152  0.88289288  0.59613913     1.11000
O30         O  0.05393250  0.00558681  0.56641949    -0.97200
Zr31       Zr  0.07191668  0.95768489  0.56413938     1.88900
O32         O  0.05874892  0.87884221  0.57045732    -0.73900
O33         O  0.12568079  0.96507563  0.60130197    -0.53100
O34         O  0.05500098  0.97101073  0.58601549    -0.97800
O35         O  0.03512958  0.97055713  0.54838581    -0.55000
O36         O  0.03805448  0.92214202  0.57033508    -0.74400
C37         C  0.03770916  0.89548415  0.57240486     0.98000
O38         O  0.12690775  0.83824961  0.56519297    -0.63200
O39         O  0.13551153  0.90867252  0.51342616    -0.58000
O40         O  0.08711970  0.85443620  0.54631632    -0.94700
O41         O  0.08018929  0.88091784  0.52786202    -0.93100
O42         O  0.19504849  0.89735848  0.52701924    -0.93500
O43         O  0.19934391  0.86907262  0.54956718    -0.92200
C44         C  0.07753574  0.85772283  0.53456905     1.16800
H45         H  0.15912955  0.95274750  0.52762562     0.32800
H46         H  0.16405787  0.88963946  0.57260979     0.43600
H47         H  0.06053818  0.90905132  0.54789759     0.37100
H48         H  0.11420311  0.99472559  0.57497123     0.33600
H49         H  0.23774478  0.91599172  0.55610622     0.25400
H50         H  0.11532406  0.98205350  0.59831811     0.31300
H51         H  0.06417149  0.95756163  0.59213656     0.37200
H52         H  0.21589199  0.89945930  0.52697251     0.31700
H53         H  0.12668250  0.89052518  0.51086389     0.30600
H54         H  0.07545067  0.92967578  0.50689621     0.32300
H55         H  0.01749568  0.96261236  0.55211458     0.31200
H56         H  0.18487429  0.85678196  0.54543082     0.35200
H57         H  0.13600807  0.83429826  0.55656864     0.28000
H58         H  0.16971168  0.04307981  0.54674765     0.32200
H59         H  0.07085985  0.01781723  0.56584958     0.35000
H60         H  0.13172125  0.92139024  0.50587502     0.27700
H61         H  0.14300248  0.84043434  0.57138312     0.40500
H62         H  0.18845185  0.93748010  0.60045817     0.30600
H63         H  0.22211327  0.93408305  0.56679703     0.38200
H64         H  0.03898969  0.95892806  0.54044399     0.30100
H65         H  0.11062497  0.95211111  0.60434389     0.30100
H66         H  0.13909354  0.04885793  0.55206884     0.30400
Zr67       Zr  0.29446517  0.13464657  0.69118754     2.17500
O68         O  0.24476926  0.13796343  0.69736194    -0.52000
O69         O  0.28981278  0.09434162  0.70617659    -0.75200
O70         O  0.26391093  0.11465870  0.67231678    -0.82000
O71         O  0.32030223  0.17335947  0.72162511    -0.83700
O72         O  0.29120282  0.10824765  0.65398767    -0.79300
O73         O  0.28352051  0.17333654  0.70728071    -0.91000
O74         O  0.32939548  0.06744705  0.70412987    -0.76900
O75         O  0.32281590  0.10387571  0.67803161    -0.86400
O76         O  0.33671345  0.12523013  0.70403237    -0.86100
O77         O  0.30474936  0.15985105  0.67110599    -0.72900
O78         O  0.32029616  0.17754270  0.69517805    -0.85000
Zr79       Zr  0.39842591  0.16292230  0.67536359     2.26400
Zr80       Zr  0.33558712  0.12977548  0.65851840     2.06300
Zr81       Zr  0.36230404  0.16820850  0.70793353     2.10000
Zr82       Zr  0.36359805  0.09341796  0.69084041     1.78800
O83         O  0.36219984  0.20477040  0.72488473    -0.93800
O84         O  0.35410753  0.05166346  0.67742913    -0.41600
O85         O  0.38978907  0.13626709  0.69510520    -0.78200
O86         O  0.37681285  0.11805416  0.67095807    -0.96900
O87         O  0.35756051  0.17368879  0.66278868    -0.90200
O88         O  0.37033737  0.19405934  0.68832823    -0.93100
C89         C  0.30503913  0.07278717  0.70917955     1.00700
C90         C  0.29576172  0.18196387  0.71806051     1.13600
C91         C  0.26780140  0.10603116  0.66011953     1.04400
O92         O  0.34679896  0.08515489  0.64776209    -0.95200
O93         O  0.37022665  0.14098160  0.64163850    -0.91000
O94         O  0.40789198  0.16095733  0.65193799    -0.84100
C95         C  0.39465936  0.15277023  0.64154986     1.11000
O96         O  0.28035571  0.22099547  0.67708282    -0.97200
Zr97       Zr  0.32871713  0.20351884  0.67579413     1.88900
O98         O  0.40726149  0.21048408  0.66804845    -0.73900
O99         O  0.31422227  0.15197483  0.63919677    -0.53100
O100        O  0.31319054  0.21934641  0.65408351    -0.97800
O101        O  0.32299508  0.24398407  0.69045651    -0.55000
O102        O  0.36579595  0.23497307  0.66870043    -0.74400
C103        C  0.39241148  0.23283510  0.66653505     0.98000
O104        O  0.44490125  0.14164093  0.67244839    -0.63200
O105        O  0.38395841  0.13763285  0.72439023    -0.58000
O106        O  0.43287919  0.18263484  0.69032795    -0.94700
O107        O  0.40856685  0.19445293  0.70887726    -0.93100
O108        O  0.38708935  0.07576979  0.71059713    -0.93500
O109        O  0.40796441  0.06870389  0.68682684    -0.92200
C110        C  0.43111392  0.19512111  0.70154092     1.16800
H111        H  0.33298475  0.11792654  0.71275356     0.32800
H112        H  0.38928767  0.10650579  0.66567267     0.43600
H113        H  0.37982335  0.21150109  0.69042557     0.37100
H114        H  0.28755584  0.16366067  0.66626909     0.33600
H115        H  0.36656511  0.05354677  0.66961239     0.25400
H116        H  0.30882875  0.13625677  0.63324260     0.31300
H117        H  0.32553844  0.20926238  0.64774090     0.37200
H118        H  0.40255815  0.08936024  0.71233481     0.31700
H119        H  0.40052572  0.14841015  0.72762736     0.30600
H120        H  0.35579303  0.22197466  0.72022205     0.32300
H121        H  0.32106047  0.26036471  0.68446367     0.31200
H122        H  0.42141212  0.08368571  0.68419631     0.35200
H123        H  0.44123534  0.12355025  0.66784623     0.28000
H124        H  0.23657064  0.11925927  0.69526641     0.32200
H125        H  0.26932404  0.20503050  0.68071940     0.35000
H126        H  0.37054152  0.13775876  0.73190297     0.27700
H127        H  0.45458400  0.15351852  0.66579721     0.40500
H128        H  0.34237633  0.08830200  0.63830616     0.30600
H129        H  0.36219274  0.03574194  0.68250397     0.38200
H130        H  0.34171200  0.24657844  0.69467775     0.30100
H131        H  0.29606195  0.15995185  0.64231067     0.30100
H132        H  0.23635074  0.15095260  0.69079287     0.30400
Zr133      Zr  0.39350020  0.47604728  0.55356658     2.17500
O134        O  0.39727095  0.52725312  0.55216609    -0.52000
O135        O  0.35239067  0.47882630  0.53868546    -0.75200
O136        O  0.42244110  0.49039070  0.53409709    -0.82000
O137        O  0.37219471  0.48048559  0.59086168    -0.83700
O138        O  0.42902463  0.45017999  0.52224846    -0.79300
O139        O  0.37462805  0.50712189  0.57220048    -0.91000
O140        O  0.33012362  0.43633064  0.53886008    -0.76900
O141        O  0.38737229  0.43371929  0.54075717    -0.86400
O142        O  0.36265308  0.44557101  0.56581037    -0.86100
O143        O  0.43978431  0.45427245  0.55049235    -0.72900
O144        O  0.41686374  0.46554610  0.57410480    -0.85000
Zr145      Zr  0.42574809  0.37313248  0.56996363     2.26400
Zr146      Zr  0.43274906  0.41147017  0.53775111     2.06300
Zr147      Zr  0.38675655  0.43344094  0.58591373     2.10000
Zr148      Zr  0.35629652  0.40408459  0.55281972     1.78800
O149        O  0.39005921  0.45457894  0.60786816    -0.93800
O150        O  0.34656595  0.37879635  0.53231780    -0.41600
O151        O  0.37896120  0.39168480  0.57329520    -0.78200
O152        O  0.40121507  0.38146057  0.54957565    -0.96900
O153        O  0.45644237  0.40328717  0.55796830    -0.90200
O154        O  0.43308583  0.41469841  0.58288639    -0.93100
C155        C  0.33281888  0.46178856  0.53477872     1.00700
C156        C  0.36945657  0.50390000  0.58480559     1.13600
C157        C  0.43261828  0.47672769  0.52404714     1.04400
O158        O  0.41186548  0.38903328  0.51836408    -0.95200
O159        O  0.45850031  0.36528192  0.53674402    -0.91000
O160        O  0.44518047  0.33936361  0.55455312    -0.84100
C161        C  0.45842077  0.34216878  0.54359169     1.11000
O162        O  0.47867734  0.49379153  0.57128390    -0.97200
Zr163      Zr  0.46242087  0.44504899  0.57073152     1.88900
O164        O  0.47489437  0.36568198  0.57564869    -0.73900
O165        O  0.47766334  0.41893759  0.52646196    -0.53100
O166        O  0.50560200  0.45375123  0.55827252    -0.97800
O167        O  0.47335827  0.46059939  0.59314775    -0.55000
O168        O  0.49570591  0.40883007  0.57646020    -0.74400
C169        C  0.49629716  0.38189346  0.57738594     0.98000
O170        O  0.40761775  0.32545580  0.57330134    -0.63200
O171        O  0.33935793  0.41772031  0.59172731    -0.58000
O172        O  0.42224822  0.36315152  0.59328808    -0.94700
O173        O  0.39996829  0.40018078  0.60312444    -0.93100
O174        O  0.31067049  0.40890008  0.56375836    -0.93500
O175        O  0.33425244  0.35824892  0.55625092    -0.92200
C176        C  0.41286514  0.37637998  0.60344839     1.16800
H177        H  0.34481980  0.45472187  0.56760011     0.32800
H178        H  0.39850787  0.36396500  0.54482441     0.43600
H179        H  0.44316236  0.41125891  0.59100944     0.37100
H180        H  0.45391032  0.46592947  0.54633223     0.33600
H181        H  0.32595114  0.38092068  0.53091574     0.25400
H182        H  0.49176399  0.40814544  0.53163014     0.31300
H183        H  0.50301646  0.44321718  0.54989632     0.37200
H184        H  0.29657143  0.40478393  0.55677007     0.31700
H185        H  0.34079245  0.41200967  0.60112027     0.30600
H186        H  0.37476324  0.44572830  0.61310953     0.32300
H187        H  0.48118759  0.44380145  0.59764699     0.31200
H188        H  0.34874139  0.34704759  0.56097087     0.35200
H189        H  0.39210718  0.32747294  0.57980655     0.28000
H190        H  0.39129537  0.53213206  0.54306914     0.32200
H191        H  0.47072657  0.50244951  0.56319105     0.35000
H192        H  0.32792624  0.43520809  0.59191059     0.27700
H193        H  0.39781990  0.32064877  0.56493557     0.40500
H194        H  0.42304534  0.37165451  0.51691110     0.30600
H195        H  0.35526498  0.39053686  0.52532851     0.38200
H196        H  0.45469177  0.46367084  0.59735082     0.30100
H197        H  0.47583500  0.40840056  0.51803780     0.30100
H198        H  0.41782791  0.53123538  0.55241569     0.30400
Zr199      Zr  0.24336787  0.63715877  0.68908208     2.17500
O200        O  0.29456477  0.63741913  0.69194182    -0.52000
O201        O  0.24247410  0.59469328  0.70335981    -0.75200
O202        O  0.25664069  0.66252500  0.70971165    -0.82000
O203        O  0.24898447  0.61942367  0.65148825    -0.83700
O204        O  0.21456770  0.66183468  0.71969059    -0.79300
O205        O  0.27438811  0.61728211  0.67054762    -0.91000
O206        O  0.19752026  0.57797565  0.70326054    -0.76900
O207        O  0.19937594  0.63380740  0.70092901    -0.86400
O208        O  0.21174813  0.60931212  0.67597899    -0.86100
O209        O  0.22463894  0.68500600  0.69240772    -0.72900
O210        O  0.23548693  0.66311137  0.66885890    -0.85000
Zr211      Zr  0.14357209  0.67677908  0.67157486     2.26400
Zr212      Zr  0.18019003  0.68047368  0.70434561     2.06300
Zr213      Zr  0.20252788  0.63545353  0.65613859     2.10000
Zr214      Zr  0.16886354  0.60512057  0.68813351     1.78800
O215        O  0.22260130  0.64035787  0.63407696    -0.93800
O216        O  0.13943744  0.59589459  0.70742773    -0.41600
O217        O  0.15950585  0.62952150  0.66785573    -0.78200
O218        O  0.14906181  0.65114798  0.69179659    -0.96900
O219        O  0.17408350  0.70580381  0.68439128    -0.90200
O220        O  0.18623451  0.68237711  0.65941401    -0.93100
C221        C  0.22310273  0.57759049  0.70746557     1.00700
C222        C  0.27163458  0.61388273  0.65776421     1.13600
C223        C  0.24031717  0.66976117  0.71937535     1.04400
O224        O  0.15754146  0.67143651  0.72552299    -0.95200
O225        O  0.13279887  0.70385733  0.70608342    -0.91000
O226        O  0.11007592  0.69766490  0.68648588    -0.84100
C227        C  0.11100495  0.70677871  0.69839630     1.11000
O228        O  0.26592424  0.72504845  0.66952486    -0.97200
Zr229      Zr  0.21712042  0.70983894  0.67238410     1.88900
O230        O  0.13915693  0.72565801  0.66541613    -0.73900
O231        O  0.19608038  0.72564786  0.71316573    -0.53100
O232        O  0.23220713  0.74796747  0.68697976    -0.97800
O233        O  0.23066833  0.72494669  0.65018514    -0.55000
O234        O  0.18248220  0.74590726  0.66727079    -0.74400
C235        C  0.15590754  0.74686262  0.66474883     0.98000
O236        O  0.09573997  0.65973653  0.66735496    -0.63200
O237        O  0.18714611  0.58772342  0.65081780    -0.58000
O238        O  0.13403149  0.67381646  0.64821612    -0.94700
O239        O  0.16997189  0.64947487  0.63865641    -0.93100
O240        O  0.17401638  0.55934328  0.67742347    -0.93500
O241        O  0.12360948  0.58539023  0.68131431    -0.92200
C242        C  0.14689648  0.66373404  0.63810288     1.16800
H243        H  0.21990438  0.59109080  0.67406359     0.32800
H244        H  0.13110067  0.64925170  0.69624911     0.43600
H245        H  0.18345917  0.69252402  0.65126166     0.37100
H246        H  0.23732083  0.69740456  0.69712695     0.33600
H247        H  0.13865619  0.57506591  0.70808611     0.25400
H248        H  0.18328860  0.73969531  0.70908954     0.31300
H249        H  0.21530465  0.76005728  0.68807103     0.37200
H250        H  0.16679631  0.54559694  0.68396504     0.31700
H251        H  0.17634361  0.58967569  0.64248136     0.30600
H252        H  0.21771369  0.62259933  0.62942229     0.32300
H253        H  0.21467230  0.73638297  0.64685955     0.31200
H254        H  0.11045729  0.60163414  0.68143568     0.35200
H255        H  0.09830048  0.64250060  0.66193507     0.28000
H256        H  0.29794329  0.62741574  0.70038409     0.32200
H257        H  0.27596917  0.70813622  0.66620177     0.35000
H258        H  0.20467545  0.57773525  0.64821958     0.27700
H259        H  0.08898095  0.65252595  0.67597927     0.40500
H260        H  0.14512449  0.65499434  0.72383680     0.30600
H261        H  0.15112516  0.60184952  0.71506980     0.38200
H262        H  0.23038290  0.70760175  0.64471226     0.30100
H263        H  0.19039538  0.72527109  0.72258444     0.30100
H264        H  0.29963753  0.65732276  0.69377019     0.30400
Zr265      Zr  0.64947143  0.03513492  0.55494143     2.17500
O266        O  0.64782145  0.98409318  0.55191325    -0.52000
O267        O  0.69146750  0.03523009  0.54054093    -0.75200
O268        O  0.62363796  0.02209230  0.53449876    -0.82000
O269        O  0.67420287  0.03085350  0.59177355    -0.83700
O270        O  0.62652051  0.06420801  0.52493567    -0.79300
O271        O  0.67048612  0.00414767  0.57310981    -0.91000
O272        O  0.71075450  0.07906041  0.54172691    -0.76900
O273        O  0.65410227  0.07906988  0.54316219    -0.86400
O274        O  0.67759599  0.06634204  0.56816508    -0.86100
O275        O  0.60218723  0.05531916  0.55152314    -0.72900
O276        O  0.62352955  0.04232503  0.57519401    -0.85000
Zr277      Zr  0.61038299  0.13503484  0.57297828     2.26400
Zr278      Zr  0.60794121  0.09965425  0.53979974     2.06300
Zr279      Zr  0.65112847  0.07475592  0.58808798     2.10000
Zr280      Zr  0.68272130  0.10913399  0.55612739     1.78800
O281        O  0.63259349  0.04922746  0.60708982    -0.93800
O282        O  0.69086562  0.13635103  0.53606524    -0.41600
O283        O  0.65758713  0.11787379  0.57636260    -0.78200
O284        O  0.63692894  0.13019056  0.55287323    -0.96900
O285        O  0.58222310  0.10468799  0.55972768    -0.90200
O286        O  0.60449169  0.09214568  0.58491231    -0.93100
C287        C  0.71000071  0.05379538  0.53715307     1.00700
C288        C  0.67810108  0.00790428  0.58542600     1.13600
C289        C  0.61710319  0.03902345  0.52501950     1.04400
O290        O  0.62140352  0.12367583  0.51949639    -0.95200
O291        O  0.58313966  0.14611897  0.53837072    -0.91000
O292        O  0.58895357  0.16857258  0.55805735    -0.84100
C293        C  0.57971979  0.16761898  0.54614817     1.11000
O294        O  0.56511778  0.01198759  0.56920671    -0.97200
Zr295      Zr  0.57730675  0.06166072  0.57153140     1.88900
O296        O  0.56070151  0.13977230  0.57849130    -0.73900
O297        O  0.56346320  0.08715903  0.52910586    -0.53100
O298        O  0.53504428  0.05066815  0.55874028    -0.97800
O299        O  0.56333216  0.04457997  0.59329472    -0.55000
O300        O  0.54153860  0.09593004  0.57721655    -0.74400
C301        C  0.53974065  0.12261311  0.57915086     0.98000
O302        O  0.62869404  0.18170360  0.57860788    -0.63200
O303        O  0.69593569  0.08677400  0.59859304    -0.58000
O304        O  0.61381459  0.14377800  0.59640538    -0.94700
O305        O  0.64113711  0.10908338  0.60529472    -0.93100
O306        O  0.72671295  0.10675040  0.56865282    -0.93500
O307        O  0.70545986  0.15465709  0.55959513    -0.92200
C308        C  0.62631590  0.13167397  0.60610558     1.16800
H309        H  0.69583263  0.05814347  0.57005646     0.32800
H310        H  0.63905357  0.14827454  0.54860813     0.43600
H311        H  0.59460452  0.09482761  0.59317506     0.37100
H312        H  0.58937298  0.04316255  0.54678311     0.33600
H313        H  0.71095665  0.13303787  0.53378662     0.25400
H314        H  0.55792627  0.06877473  0.53292315     0.31300
H315        H  0.52946697  0.06873812  0.55459773     0.37200
H316        H  0.74015815  0.09668547  0.56281085     0.31700
H317        H  0.69796607  0.10737955  0.59730524     0.30600
H318        H  0.64711276  0.05153634  0.61406811     0.32300
H319        H  0.55808640  0.06160785  0.59842043     0.31200
H320        H  0.68978955  0.16849346  0.55937130     0.35200
H321        H  0.64510186  0.18436307  0.57266074     0.28000
H322        H  0.65416959  0.98063261  0.54271983     0.32200
H323        H  0.58150995  0.00348700  0.56459006     0.35000
H324        H  0.69246351  0.08455025  0.60819424     0.27700
H325        H  0.61451138  0.19557167  0.57553949     0.40500
H326        H  0.60346296  0.12600055  0.51456333     0.30600
H327        H  0.68011209  0.12620948  0.52912355     0.38200
H328        H  0.58109678  0.03789324  0.59740003     0.30100
H329        H  0.54951589  0.10068163  0.53273735     0.30100
H330        H  0.62744874  0.97924514  0.55192277     0.30400
Zr331      Zr  0.80023449  0.88622797  0.69280730     2.17500
O332        O  0.74948213  0.87766970  0.69434016    -0.52000
O333        O  0.79214827  0.92538296  0.70840427    -0.75200
O334        O  0.78781229  0.85378510  0.71121968    -0.82000
O335        O  0.79580042  0.91159856  0.65613349    -0.83700
O336        O  0.82725239  0.85016686  0.72383242    -0.79300
O337        O  0.76856881  0.90405686  0.67433991    -0.91000
O338        O  0.83219045  0.95189493  0.70934073    -0.76900
O339        O  0.84069561  0.89301470  0.70677123    -0.86400
O340        O  0.82893724  0.92206617  0.68285025    -0.86100
O341        O  0.82529782  0.84142955  0.69416772    -0.72900
O342        O  0.81457493  0.86766351  0.67161512    -0.85000
Zr343      Zr  0.90707807  0.86732367  0.67777598     2.26400
Zr344      Zr  0.86591849  0.84891976  0.70824396     2.06300
Zr345      Zr  0.84412386  0.90324848  0.66196635     2.10000
Zr346      Zr  0.86885439  0.92881672  0.69697903     1.78800
O347        O  0.82867690  0.89586549  0.63923886    -0.93800
O348        O  0.88708897  0.93543630  0.71933216    -0.41600
O349        O  0.88407394  0.91215907  0.67579734    -0.78200
O350        O  0.89454196  0.88544477  0.69902589    -0.96900
O351        O  0.87937358  0.83095158  0.68733267    -0.90200
O352        O  0.86782665  0.85910259  0.66343661    -0.93100
C353        C  0.80675458  0.94641753  0.71273397     1.00700
C354        C  0.77191862  0.91116605  0.66197888     1.13600
C355        C  0.80142324  0.84413601  0.72135231     1.04400
O356        O  0.88847721  0.86287408  0.72890013    -0.95200
O357        O  0.91228978  0.82405515  0.70880197    -0.91000
O358        O  0.93922351  0.84329147  0.69255880    -0.84100
C359        C  0.93595227  0.82689539  0.70250359     1.11000
O360        O  0.79309306  0.80324305  0.67012858    -0.97200
Zr361      Zr  0.83977560  0.82382726  0.67335030     1.88900
O362        O  0.91985381  0.82406691  0.66665878    -0.73900
O363        O  0.85450186  0.80137803  0.71562946    -0.53100
O364        O  0.83240404  0.77980827  0.68528448    -0.97800
O365        O  0.83060650  0.81115000  0.65036373    -0.55000
O366        O  0.88065322  0.79619110  0.66706256    -0.74400
C367        C  0.90688132  0.80072439  0.66466648     0.98000
O368        O  0.95264454  0.89143426  0.67816943    -0.63200
O369        O  0.84802597  0.95351831  0.65732470    -0.58000
O370        O  0.92110611  0.88259975  0.65620876    -0.94700
O371        O  0.88243804  0.90079894  0.64598338    -0.93100
O372        O  0.86655136  0.97601600  0.68754927    -0.93500
O373        O  0.91425649  0.95319358  0.69700010    -0.92200
C374        C  0.90824758  0.89241256  0.64607356     1.16800
H375        H  0.81844491  0.93936919  0.68170727     0.32800
H376        H  0.91124780  0.88826503  0.70437352     0.43600
H377        H  0.87372832  0.85225440  0.65488306     0.37100
H378        H  0.81397984  0.82613272  0.69750431     0.33600
H379        H  0.88590481  0.95601611  0.72095175     0.25400
H380        H  0.86401870  0.78879581  0.70920029     0.31300
H381        H  0.85126212  0.77080720  0.68573330     0.37200
H382        H  0.86806915  0.98892353  0.69523438     0.31700
H383        H  0.86197966  0.95476303  0.65005026     0.30600
H384        H  0.83419946  0.87622134  0.63712642     0.32300
H385        H  0.84943988  0.80939292  0.64617085     0.31200
H386        H  0.92832093  0.93852013  0.69927219     0.35200
H387        H  0.95474273  0.89838457  0.68736041     0.28000
H388        H  0.74408170  0.88362399  0.70338745     0.32200
H389        H  0.77976522  0.81872439  0.67222782     0.35000
H390        H  0.82978981  0.95852426  0.65312177     0.27700
H391        H  0.96708715  0.87643819  0.67725883     0.40500
H392        H  0.89713657  0.84536432  0.73236121     0.30600
H393        H  0.87248572  0.92720161  0.72518598     0.38200
H394        H  0.82232955  0.82835995  0.64641641     0.30100
H395        H  0.86529673  0.79896438  0.72393942     0.30100
H396        H  0.74727967  0.85688497  0.69428851     0.30400
Zr397      Zr  0.89285697  0.55217342  0.55460934     2.17500
O398        O  0.89107045  0.50177233  0.54985531    -0.52000
O399        O  0.84919698  0.55055039  0.54125368    -0.75200
O400        O  0.87279933  0.52454995  0.57441190    -0.82000
O401        O  0.92682744  0.57137021  0.52255975    -0.83700
O402        O  0.87290804  0.55360617  0.59229869    -0.79300
O403        O  0.92842652  0.53663673  0.53770371    -0.91000
O404        O  0.82826906  0.59347410  0.54312132    -0.76900
O405        O  0.86723421  0.58506878  0.56787310    -0.86400
O406        O  0.88611564  0.59401379  0.54113654    -0.86100
O407        O  0.92252544  0.56173936  0.57356817    -0.72900
O408        O  0.93734365  0.57374415  0.54893630    -0.85000
Zr409      Zr  0.93532773  0.65361939  0.56746437     2.26400
Zr410      Zr  0.89710934  0.59620329  0.58634038     2.06300
Zr411      Zr  0.93084378  0.61479473  0.53530532     2.10000
Zr412      Zr  0.85989829  0.62578663  0.55454471     1.78800
O413        O  0.96968510  0.60692905  0.51993841    -0.93800
O414        O  0.81890207  0.62586040  0.56914958    -0.41600
O415        O  0.90466686  0.64674253  0.54876775    -0.78200
O416        O  0.88883279  0.63747486  0.57336479    -0.96900
O417        O  0.94288175  0.61279679  0.58054842    -0.90200
O418        O  0.96104457  0.62184923  0.55377524    -0.93100
C419        C  0.82924642  0.56819148  0.53855104     1.00700
C420        C  0.93614726  0.54746477  0.52647658     1.13600
C421        C  0.86678293  0.53005941  0.58680454     1.04400
O422        O  0.85405376  0.61186470  0.59737458    -0.95200
O423        O  0.91334645  0.63192969  0.60191387    -0.91000
O424        O  0.93862594  0.66459321  0.59055280    -0.84100
C425        C  0.92888117  0.65411313  0.60126139     1.11000
O426        O  0.97992255  0.53098119  0.56522078    -0.97200
Zr427      Zr  0.96782753  0.58075515  0.56700324     1.88900
O428        O  0.98527657  0.65919474  0.57249346    -0.73900
O429        O  0.91586598  0.57361305  0.60611885    -0.53100
O430        O  0.98622338  0.56673151  0.58849326    -0.97800
O431        O  0.00494755  0.56730252  0.55149827    -0.55000
O432        O  0.00413553  0.61516924  0.57215213    -0.74400
C433        C  0.00608295  0.64199824  0.57369754     0.98000
O434        O  0.91868966  0.70086119  0.57301015    -0.63200
O435        O  0.90351917  0.63503622  0.51720658    -0.58000
O436        O  0.95290570  0.68567697  0.55097918    -0.94700
O437        O  0.95626832  0.66073211  0.53183653    -0.93100
O438        O  0.84542203  0.64872419  0.53408816    -0.93500
O439        O  0.83935902  0.67262788  0.55699115    -0.92200
C440        C  0.96040538  0.68333018  0.53886431     1.16800
H441        H  0.87688654  0.59008971  0.53283034     0.32800
H442        H  0.87954339  0.65179312  0.57860954     0.43600
H443        H  0.97879992  0.62953771  0.55075329     0.37100
H444        H  0.92540602  0.54480840  0.57868374     0.33600
H445        H  0.80280888  0.63110133  0.56338669     0.25400
H446        H  0.93528098  0.58116045  0.60710661     0.31300
H447        H  0.98494156  0.58393844  0.59403284     0.37200
H448        H  0.82482582  0.64526552  0.53336595     0.31700
H449        H  0.88857559  0.62106068  0.51516705     0.30600
H450        H  0.96227608  0.61323104  0.51126964     0.32300
H451        H  0.02215972  0.57719327  0.55460351     0.31200
H452        H  0.85528329  0.68469035  0.55991244     0.35200
H453        H  0.93602994  0.71178486  0.57501948     0.28000
H454        H  0.87126318  0.49610930  0.55159464     0.32200
H455        H  0.96289939  0.52206452  0.56131756     0.35000
H456        H  0.89340169  0.65123972  0.52117322     0.27700
H457        H  0.91158912  0.70887289  0.56460758     0.40500
H458        H  0.85461576  0.63272758  0.59711044     0.30600
H459        H  0.81550067  0.60576871  0.57128114     0.38200
H460        H  0.99985941  0.57685640  0.54313012     0.30100
H461        H  0.90513277  0.58202422  0.61355640     0.30100
H462        H  0.90220217  0.49283259  0.55700787     0.30400
Zr463      Zr  0.73924197  0.38456804  0.68934701     2.17500
O464        O  0.79007272  0.38015821  0.69279161    -0.52000
O465        O  0.74388842  0.42641906  0.70343169    -0.75200
O466        O  0.76746187  0.40751700  0.67063159    -0.82000
O467        O  0.71795188  0.33601365  0.71840431    -0.83700
O468        O  0.74090306  0.40678788  0.65188559    -0.79300
O469        O  0.75628484  0.35193429  0.70685889    -0.91000
O470        O  0.70166740  0.44912783  0.70276460    -0.76900
O471        O  0.70830957  0.41363091  0.67674209    -0.86400
O472        O  0.69776369  0.39203474  0.70295314    -0.86100
O473        O  0.72842621  0.35827229  0.66955753    -0.72900
O474        O  0.71605173  0.34023954  0.69391772    -0.85000
Zr475      Zr  0.63524120  0.35097585  0.67501694     2.26400
Zr476      Zr  0.69570007  0.38717076  0.65743230     2.06300
Zr477      Zr  0.67423304  0.34800665  0.70713013     2.10000
Zr478      Zr  0.66781327  0.42184439  0.69014257     1.78800
O479        O  0.67128281  0.31547151  0.72573814    -0.93800
O480        O  0.67398851  0.46569840  0.67790403    -0.41600
O481        O  0.64389017  0.37798464  0.69468612    -0.78200
O482        O  0.65458483  0.39680028  0.67038103    -0.96900
O483        O  0.67597915  0.34213848  0.66186928    -0.90200
O484        O  0.66547736  0.32148033  0.68770682    -0.93100
C485        C  0.72720855  0.44659198  0.70684750     1.00700
C486        C  0.74472500  0.33785630  0.71641555     1.13600
C487        C  0.76373423  0.41268908  0.65804697     1.04400
O488        O  0.67782315  0.43202963  0.64924530    -0.95200
O489        O  0.66236832  0.36861431  0.64131699    -0.91000
O490        O  0.62296826  0.35403050  0.65207204    -0.84100
C491        C  0.63710196  0.35879599  0.64152985     1.11000
O492        O  0.75554904  0.29774952  0.67373591    -0.97200
Zr493      Zr  0.70664373  0.31375467  0.67457432     1.88900
O494        O  0.62784507  0.30256378  0.66788341    -0.73900
O495        O  0.71793252  0.37886632  0.63600685    -0.53100
O496        O  0.71834358  0.29855671  0.65221247    -0.97800
O497        O  0.71508027  0.27316733  0.68883049    -0.55000
O498        O  0.67053307  0.28042952  0.66850191    -0.74400
C499        C  0.64375452  0.28078781  0.66664079     0.98000
O500        O  0.58763704  0.37001241  0.67237941    -0.63200
O501        O  0.65854596  0.38142928  0.72394851    -0.58000
O502        O  0.60237175  0.33123606  0.69061632    -0.94700
O503        O  0.62852734  0.32081425  0.70877777    -0.93100
O504        O  0.64157419  0.43414100  0.71009402    -0.93500
O505        O  0.62426897  0.44760171  0.68578586    -0.92200
C506        C  0.60539590  0.31936446  0.70187119     1.16800
H507        H  0.70232681  0.39971491  0.71152860     0.32800
H508        H  0.64111776  0.40772190  0.66536167     0.43600
H509        H  0.65687241  0.30373036  0.69004409     0.37100
H510        H  0.74535417  0.35508117  0.66444386     0.33600
H511        H  0.67266412  0.48078097  0.68466842     0.25400
H512        H  0.71490109  0.35858767  0.63410172     0.31300
H513        H  0.70178871  0.30386948  0.64675971     0.37200
H514        H  0.65591785  0.44094227  0.71648425     0.31700
H515        H  0.63803449  0.37777311  0.72490067     0.30600
H516        H  0.65667133  0.32342487  0.73168545     0.32300
H517        H  0.71977910  0.25753947  0.68269824     0.31200
H518        H  0.60918469  0.43315102  0.68628852     0.35200
H519        H  0.58307647  0.37870424  0.68103434     0.28000
H520        H  0.79742025  0.39972313  0.69271394     0.32200
H521        H  0.76356187  0.30304414  0.68244565     0.35000
H522        H  0.66699180  0.37463297  0.73231616     0.27700
H523        H  0.58978996  0.38631612  0.66635684     0.40500
H524        H  0.67563158  0.42913627  0.63959770     0.30600
H525        H  0.69406867  0.46595978  0.67514172     0.38200
H526        H  0.69625088  0.26808999  0.69238329     0.30100
H527        H  0.70613270  0.38897043  0.62945337     0.30100
H528        H  0.79746589  0.37142079  0.68458893     0.30400
Zr529      Zr  0.79752071  0.63918579  0.19046941     2.17500
O530        O  0.74844583  0.63621293  0.19768515    -0.52000
O531        O  0.79868435  0.59665979  0.20441552    -0.75200
O532        O  0.76658825  0.61852858  0.17211170    -0.82000
O533        O  0.82352019  0.67223414  0.22055763    -0.83700
O534        O  0.79333424  0.61172530  0.15363337    -0.79300
O535        O  0.78497170  0.67502992  0.20778076    -0.91000
O536        O  0.84195029  0.57653238  0.20201482    -0.76900
O537        O  0.82774880  0.61208753  0.17645401    -0.86400
O538        O  0.84203013  0.63377442  0.20202786    -0.86100
O539        O  0.80308195  0.66574206  0.17029810    -0.72900
O540        O  0.81866344  0.68483230  0.19411961    -0.85000
Zr541      Zr  0.89609863  0.67940718  0.17214706     2.26400
Zr542      Zr  0.83524013  0.63909841  0.15676809     2.06300
Zr543      Zr  0.86296521  0.67917904  0.20569822     2.10000
Zr544      Zr  0.87108184  0.60607610  0.18796694     1.78800
O545        O  0.85816853  0.72183481  0.21897537    -0.93800
O546        O  0.86478867  0.56291968  0.17514225    -0.41600
O547        O  0.89231977  0.65144897  0.19175277    -0.78200
O548        O  0.87898732  0.63244275  0.16805185    -0.96900
O549        O  0.85273848  0.68540355  0.16052659    -0.90200
O550        O  0.86626725  0.70642115  0.18624333    -0.93100
C551        C  0.81716064  0.57755843  0.20717781     1.00700
C552        C  0.79892524  0.68218309  0.21831742     1.13600
C553        C  0.77024647  0.60919715  0.16005169     1.04400
O554        O  0.85151378  0.59628396  0.14577254    -0.95200
O555        O  0.86796647  0.65240891  0.13941256    -0.91000
O556        O  0.90212524  0.68018392  0.14846968    -0.84100
C557        C  0.88994644  0.66817525  0.13864145     1.11000
O558        O  0.77237918  0.72280754  0.17534211    -0.97200
Zr559      Zr  0.82262333  0.71166735  0.17458108     1.88900
O560        O  0.89999201  0.72891868  0.16686604    -0.73900
O561        O  0.80692692  0.65606152  0.13823120    -0.53100
O562        O  0.80535156  0.72814488  0.15323997    -0.97800
O563        O  0.81080098  0.74972524  0.18984233    -0.55000
O564        O  0.85586137  0.74787340  0.16832895    -0.74400
C565        C  0.88257641  0.74960643  0.16632641     0.98000
O566        O  0.94321055  0.66265507  0.16631099    -0.63200
O567        O  0.88771931  0.65531431  0.22358041    -0.58000
O568        O  0.93184144  0.69707500  0.18729170    -0.94700
O569        O  0.90983712  0.70320046  0.20707403    -0.93100
O570        O  0.90138817  0.59567254  0.20681766    -0.93500
O571        O  0.91662373  0.58506399  0.18261152    -0.92200
C572        C  0.93149145  0.70582757  0.19931919     1.16800
H573        H  0.84006875  0.62555831  0.21069386     0.32800
H574        H  0.89207508  0.62241470  0.16241720     0.43600
H575        H  0.87429942  0.72432716  0.18879446     0.37100
H576        H  0.78508503  0.66793514  0.16589706     0.33600
H577        H  0.87291927  0.54784177  0.18073833     0.25400
H578        H  0.78853143  0.66171738  0.14207878     0.31300
H579        H  0.82242494  0.72988760  0.14763804     0.37200
H580        H  0.88862501  0.59583885  0.21457533     0.31700
H581        H  0.89360558  0.67070096  0.22962248     0.30600
H582        H  0.84410032  0.73343384  0.21420296     0.32300
H583        H  0.82917174  0.75841563  0.19219020     0.31200
H584        H  0.92945407  0.60138045  0.18141531     0.35200
H585        H  0.94010566  0.64700103  0.15997084     0.28000
H586        H  0.74344662  0.61598240  0.19693490     0.32200
H587        H  0.76497778  0.71146033  0.18279392     0.35000
H588        H  0.87280159  0.64511713  0.22850118     0.27700
H589        H  0.95167968  0.67797152  0.16097097     0.40500
H590        H  0.84839364  0.59974501  0.13622641     0.30600
H591        H  0.84418817  0.55917728  0.17526240     0.38200
H592        H  0.80458737  0.74014910  0.19803896     0.30100
H593        H  0.81585292  0.67411276  0.13562980     0.30100
H594        H  0.73736487  0.64562829  0.19065405     0.30400
Zr595      Zr  0.63940097  0.47945881  0.05544278     2.17500
O596        O  0.63910149  0.52897769  0.04891790    -0.52000
O597        O  0.68301269  0.47878877  0.04199409    -0.75200
O598        O  0.65982916  0.50981200  0.07407630    -0.82000
O599        O  0.60760040  0.45323313  0.02431902    -0.83700
O600        O  0.65967100  0.48547164  0.09349264    -0.79300
O601        O  0.60606010  0.49189201  0.03724524    -0.91000
O602        O  0.70556813  0.43767234  0.04651938    -0.76900
O603        O  0.66543464  0.45030811  0.07026333    -0.86400
O604        O  0.64705787  0.43517413  0.04405453    -0.86100
O605        O  0.60955447  0.47322717  0.07460254    -0.72900
O606        O  0.59442352  0.45733404  0.05094746    -0.85000
Zr607      Zr  0.60015754  0.37957165  0.07262889     2.26400
Zr608      Zr  0.63538623  0.44235151  0.08897843     2.06300
Zr609      Zr  0.60217762  0.41368109  0.03928625     2.10000
Zr610      Zr  0.67416636  0.40721069  0.05889222     1.78800
O611        O  0.55842559  0.42089756  0.02707595    -0.93800
O612        O  0.71565199  0.41100854  0.07312400    -0.41600
O613        O  0.62991909  0.38464973  0.05357493    -0.78200
O614        O  0.64558156  0.39883606  0.07806666    -0.96900
O615        O  0.59061306  0.42220448  0.08411996    -0.90200
O616        O  0.57330573  0.40834484  0.05811757    -0.93100
C617        C  0.70370239  0.46132465  0.04045891     1.00700
C618        C  0.59879551  0.47828612  0.02664644     1.13600
C619        C  0.66551507  0.50733208  0.08668368     1.04400
O620        O  0.67692562  0.42854247  0.10162906    -0.95200
O621        O  0.62123122  0.40994188  0.10611435    -0.91000
O622        O  0.59813959  0.37330282  0.09631932    -0.84100
C623        C  0.60731878  0.38676003  0.10647386     1.11000
O624        O  0.54604748  0.49910678  0.06893424    -0.97200
Zr625      Zr  0.56471243  0.45127495  0.06961643     1.88900
O626        O  0.55056156  0.37313783  0.07714751    -0.73900
O627        O  0.61160482  0.46978105  0.10608878    -0.53100
O628        O  0.54940651  0.46645873  0.09149264    -0.97800
O629        O  0.52719806  0.46033719  0.05363590    -0.55000
O630        O  0.52944213  0.41600881  0.07535203    -0.74400
C631        C  0.52883872  0.38927173  0.07744539     0.98000
O632        O  0.61788115  0.33287055  0.07832511    -0.63200
O633        O  0.62514389  0.38977963  0.02084822    -0.58000
O634        O  0.58173236  0.34534598  0.05714730    -0.94700
O635        O  0.57708322  0.36753984  0.03735494    -0.93100
O636        O  0.69081506  0.38031124  0.03987664    -0.93500
O637        O  0.69463209  0.36179928  0.06478991    -0.92200
C638        C  0.57327832  0.34615243  0.04511391     1.16800
H639        H  0.65625735  0.43718757  0.03560029     0.32800
H640        H  0.65534806  0.38631693  0.08407037     0.43600
H641        H  0.55584935  0.39969719  0.05526777     0.37100
H642        H  0.60628763  0.49114008  0.07890019     0.33600
H643        H  0.73198046  0.40980848  0.06701852     0.25400
H644        H  0.59422207  0.45903246  0.10817073     0.31300
H645        H  0.54616742  0.44879177  0.09648100     0.37200
H646        H  0.71130700  0.38445714  0.03928296     0.31700
H647        H  0.62213169  0.40235625  0.01317065     0.30600
H648        H  0.56065608  0.40945684  0.01894057     0.32300
H649        H  0.51991055  0.44144676  0.05119331     0.31200
H650        H  0.67876515  0.35091058  0.06861637     0.35200
H651        H  0.60076345  0.32109342  0.07949746     0.28000
H652        H  0.65915866  0.53369066  0.04719689     0.32200
H653        H  0.55825586  0.50902966  0.06248722     0.35000
H654        H  0.64562227  0.39122047  0.02275138     0.27700
H655        H  0.62677771  0.32567285  0.07011991     0.40500
H656        H  0.67580627  0.43978552  0.10987565     0.30600
H657        H  0.71582777  0.43077273  0.07630480     0.38200
H658        H  0.53710368  0.46698047  0.04559405     0.30100
H659        H  0.62361301  0.46761656  0.11404589     0.30100
H660        H  0.63407828  0.53978943  0.05696760     0.30400
Zr661      Zr  0.88991721  0.99328885  0.05660605     2.17500
O662        O  0.88847985  0.04425392  0.05343118    -0.52000
O663        O  0.84898349  0.99519360  0.04182790    -0.75200
O664        O  0.91852613  0.00524181  0.03672892    -0.82000
O665        O  0.86584602  0.99974209  0.09365484    -0.83700
O666        O  0.91694428  0.96309270  0.02681142    -0.79300
O667        O  0.87243043  0.02578888  0.07505188    -0.91000
O668        O  0.82834633  0.95191225  0.04132433    -0.76900
O669        O  0.88626188  0.94978565  0.04432146    -0.86400
O670        O  0.85759504  0.96282186  0.06791190    -0.86100
O671        O  0.93724181  0.97273994  0.05478355    -0.72900
O672        O  0.91120373  0.98419049  0.07776322    -0.85000
Zr673      Zr  0.92210525  0.89202040  0.07530157     2.26400
Zr674      Zr  0.93240654  0.92847324  0.04277504     2.06300
Zr675      Zr  0.87923726  0.95256790  0.08873568     2.10000
Zr676      Zr  0.85420113  0.92002676  0.05557589     1.78800
O677        O  0.88207230  0.97026409  0.11134947    -0.93800
O678        O  0.84778618  0.89541467  0.03459070    -0.41600
O679        O  0.87454923  0.90956460  0.07677101    -0.78200
O680        O  0.90000772  0.89846847  0.05416370    -0.96900
O681        O  0.95399696  0.92148857  0.06364984    -0.90200
O682        O  0.92635663  0.93486081  0.08755338    -0.93100
C683        C  0.83026542  0.97767756  0.03760881     1.00700
C684        C  0.86541206  0.02311526  0.08749395     1.13600
C685        C  0.92541519  0.98864833  0.02710084     1.04400
O686        O  0.92696110  0.90530535  0.02140667    -0.95200
O687        O  0.95278018  0.87994156  0.04129982    -0.91000
O688        O  0.94287049  0.85731206  0.06053878    -0.84100
C689        C  0.95344603  0.85785276  0.04884182     1.11000
O690        O  0.97083813  0.01365936  0.07863329    -0.97200
Zr691      Zr  0.95772633  0.96429735  0.07579317     1.88900
O692        O  0.97039453  0.88576517  0.08246364    -0.73900
O693        O  0.97987641  0.94272882  0.03624288    -0.53100
O694        O  0.99855608  0.97621079  0.06217965    -0.97800
O695        O  0.97245838  0.97696773  0.09817154    -0.55000
O696        O  0.99200460  0.92858253  0.08172468    -0.74400
C697        C  0.99200429  0.90185997  0.08367573     0.98000
O698        O  0.90438565  0.84545321  0.08127653    -0.63200
O699        O  0.82917749  0.94243243  0.09179673    -0.58000
O700        O  0.91539673  0.88465489  0.09866250    -0.94700
O701        O  0.88520339  0.91841384  0.10614550    -0.93100
O702        O  0.80790378  0.92140330  0.06613723    -0.93500
O703        O  0.83416752  0.87286778  0.05746769    -0.92200
C704        C  0.90088216  0.89672501  0.10774990     1.16800
H705        H  0.83939357  0.97172979  0.06900611     0.32800
H706        H  0.89811739  0.88064090  0.04960175     0.43600
H707        H  0.93449702  0.93228163  0.09622071     0.37100
H708        H  0.95082735  0.98483776  0.05048548     0.33600
H709        H  0.82877216  0.90096841  0.03142588     0.25400
H710        H  0.99240748  0.92829346  0.04019819     0.31300
H711        H  0.00998231  0.95873978  0.06172141     0.37200
H712        H  0.79630777  0.93415445  0.06060898     0.31700
H713        H  0.82875110  0.92463740  0.09690383     0.30600
H714        H  0.86329668  0.96638434  0.11529449     0.32300
H715        H  0.97760096  0.95899480  0.10252018     0.31200
H716        H  0.83672958  0.86775168  0.06688215     0.35200
H717        H  0.89840889  0.83662104  0.07284637     0.28000
H718        H  0.87652753  0.04707751  0.04550053     0.32200
H719        H  0.95432688  0.02252775  0.08299927     0.35000
H720        H  0.82252252  0.95700010  0.09809709     0.27700
H721        H  0.92134029  0.83470090  0.08403399     0.40500
H722        H  0.94168296  0.91375076  0.01569700     0.30600
H723        H  0.86107045  0.90479560  0.02843854     0.38200
H724        H  0.95483698  0.98298250  0.10264938     0.30100
H725        H  0.98079965  0.93906188  0.02661359     0.30100
H726        H  0.90775491  0.04974334  0.05062315     0.30400
Zr727      Zr  0.73700225  0.14651938  0.19287230     2.17500
O728        O  0.78840530  0.14720324  0.19474079    -0.52000
O729        O  0.74231963  0.10593888  0.20810245    -0.75200
O730        O  0.75251490  0.17813206  0.21117926    -0.82000
O731        O  0.73903965  0.12497615  0.15549401    -0.83700
O732        O  0.71369341  0.18543556  0.22403701    -0.79300
O733        O  0.76740138  0.13011446  0.17351798    -0.91000
O734        O  0.70188565  0.08005135  0.20781151    -0.76900
O735        O  0.69658240  0.13996813  0.20686888    -0.86400
O736        O  0.70636756  0.11357484  0.18197086    -0.86100
O737        O  0.71387925  0.19231982  0.19544005    -0.72900
O738        O  0.72322713  0.16811650  0.17226134    -0.85000
Zr739      Zr  0.63085372  0.17287755  0.17849254     2.26400
Zr740      Zr  0.67304069  0.18474928  0.20943490     2.06300
Zr741      Zr  0.69138832  0.13545504  0.16174072     2.10000
Zr742      Zr  0.66652062  0.10695407  0.19613112     1.78800
O743        O  0.70511084  0.14535542  0.13897915    -0.93800
O744        O  0.64872240  0.10004193  0.21850941    -0.41600
O745        O  0.65138121  0.12700173  0.17550995    -0.78200
O746        O  0.64254392  0.15111513  0.19914400    -0.96900
O747        O  0.66073640  0.20609849  0.18907605    -0.90200
O748        O  0.67033417  0.18074936  0.16436682    -0.93100
C749        C  0.72719246  0.08464916  0.21175100     1.00700
C750        C  0.76331064  0.12433755  0.16102348     1.13600
C751        C  0.74000403  0.18872614  0.22144959     1.04400
O752        O  0.65344032  0.16425782  0.22947741    -0.95200
O753        O  0.62656830  0.20923166  0.21130653    -0.91000
O754        O  0.59910329  0.19435536  0.19421147    -0.84100
C755        C  0.60281856  0.20831268  0.20493267     1.11000
O756        O  0.74735686  0.23401607  0.17354569    -0.97200
Zr757      Zr  0.70047644  0.21300107  0.17516338     1.88900
O758        O  0.62028468  0.21960271  0.17046929    -0.73900
O759        O  0.67730898  0.23120198  0.21965034    -0.53100
O760        O  0.70692519  0.25622464  0.18788599    -0.97800
O761        O  0.71349486  0.22399946  0.15239877    -0.55000
O762        O  0.66169320  0.24394049  0.16946011    -0.74400
C763        C  0.63476503  0.24194680  0.16832283     0.98000
O764        O  0.58331623  0.15322021  0.17663548    -0.63200
O765        O  0.68303630  0.08595340  0.15653989    -0.58000
O766        O  0.61783188  0.16517695  0.15586017    -0.94700
O767        O  0.65310139  0.14047806  0.14586814    -0.93100
O768        O  0.66576122  0.05969977  0.18658013    -0.93500
O769        O  0.61937669  0.08633512  0.19559933    -0.92200
C770        C  0.62922746  0.15331736  0.14582504     1.16800
H771        H  0.71617021  0.09609260  0.18027026     0.32800
H772        H  0.62571039  0.14833527  0.20441094     0.43600
H773        H  0.66502516  0.18907964  0.15601988     0.37100
H774        H  0.72547401  0.20726673  0.19900812     0.33600
H775        H  0.64954713  0.07939393  0.21993402     0.25400
H776        H  0.67816791  0.22764004  0.22928748     0.31300
H777        H  0.68986549  0.25752260  0.19352887     0.37200
H778        H  0.68300866  0.05833046  0.18108339     0.31700
H779        H  0.66231806  0.08353576  0.15740504     0.30600
H780        H  0.70322453  0.12716945  0.13421722     0.32300
H781        H  0.69976041  0.23849360  0.14951453     0.31200
H782        H  0.60793150  0.09984089  0.19040455     0.35200
H783        H  0.58532106  0.13621699  0.17100833     0.28000
H784        H  0.79252598  0.14330935  0.20416558     0.32200
H785        H  0.75784418  0.22659207  0.18127041     0.35000
H786        H  0.68661745  0.08440435  0.14692009     0.27700
H787        H  0.57902705  0.14562275  0.18552374     0.40500
H788        H  0.65448107  0.17961913  0.23610961     0.30600
H789        H  0.66366893  0.10775250  0.22434939     0.38200
H790        H  0.70859506  0.20699310  0.14717942     0.30100
H791        H  0.69647302  0.23792469  0.21728999     0.30100
H792        H  0.79384133  0.16718264  0.19343309     0.30400
Zr793      Zr  0.24232974  0.89002794  0.19407632     2.17500
O794        O  0.29198226  0.89127648  0.20051847    -0.52000
O795        O  0.24627723  0.93060192  0.20928753    -0.75200
O796        O  0.27245555  0.90833371  0.17476034    -0.82000
O797        O  0.22053947  0.84706083  0.22348185    -0.83700
O798        O  0.24329399  0.92120765  0.15789077    -0.79300
O799        O  0.25606578  0.84955916  0.20859746    -0.91000
O800        O  0.20490741  0.95504805  0.20912410    -0.76900
O801        O  0.21139808  0.92235623  0.18325884    -0.86400
O802        O  0.20080182  0.89499818  0.20795877    -0.86100
O803        O  0.23080756  0.86855611  0.17315018    -0.72900
O804        O  0.21907987  0.84514152  0.19644176    -0.85000
Zr805      Zr  0.13798204  0.86009955  0.17858641     2.26400
Zr806      Zr  0.19840584  0.90060100  0.16276355     2.06300
Zr807      Zr  0.17778781  0.84991379  0.21026690     2.10000
Zr808      Zr  0.17065408  0.92745203  0.19687994     1.78800
O809        O  0.18384937  0.80453111  0.22115672    -0.93800
O810        O  0.17373538  0.97247579  0.18536475    -0.41600
O811        O  0.14752381  0.88255385  0.19940288    -0.78200
O812        O  0.15730759  0.90674993  0.17612224    -0.96900
O813        O  0.17845536  0.85476891  0.16489196    -0.90200
O814        O  0.16848758  0.82812325  0.18972539    -0.93100
C815        C  0.23049326  0.95137721  0.21293969     1.00700
C816        C  0.24491715  0.83938678  0.21930373     1.13600
C817        C  0.26782328  0.91928805  0.16306810     1.04400
O818        O  0.18607809  0.94880716  0.15681926    -0.95200
O819        O  0.16150209  0.89381040  0.14648035    -0.91000
O820        O  0.12885751  0.86401956  0.15523730    -0.84100
C821        C  0.13961735  0.87798277  0.14565243     1.11000
O822        O  0.25717968  0.80579284  0.17378938    -0.97200
Zr823      Zr  0.20899665  0.82326901  0.17597000     1.88900
O824        O  0.12880300  0.81224463  0.17113139    -0.73900
O825        O  0.22100009  0.88862656  0.14174339    -0.53100
O826        O  0.22026527  0.81255010  0.15300044    -0.97800
O827        O  0.22036317  0.78126528  0.18879237    -0.55000
O828        O  0.17190806  0.79146157  0.16919409    -0.74400
C829        C  0.14483361  0.79110891  0.16849990     0.98000
O830        O  0.09169755  0.88191395  0.17573728    -0.63200
O831        O  0.15762475  0.87019527  0.23030710    -0.58000
O832        O  0.10460598  0.83949715  0.19382709    -0.94700
O833        O  0.13096495  0.82483599  0.21132176    -0.93100
O834        O  0.14975547  0.93771167  0.21835914    -0.93500
O835        O  0.12348428  0.94800205  0.19585272    -0.92200
C836        C  0.10758329  0.82552314  0.20457749     1.16800
H837        H  0.20540093  0.90150372  0.21675739     0.32800
H838        H  0.14395802  0.91880586  0.17163882     0.43600
H839        H  0.15999755  0.81006155  0.19156794     0.37100
H840        H  0.24734208  0.86578605  0.16770538     0.33600
H841        H  0.15776900  0.97253447  0.17903100     0.25400
H842        H  0.22644775  0.86856484  0.14263454     0.31300
H843        H  0.20466301  0.82091428  0.14778746     0.37200
H844        H  0.14002734  0.92006163  0.22092434     0.31700
H845        H  0.13990438  0.85953568  0.23180539     0.30600
H846        H  0.17588202  0.80729214  0.23012088     0.32300
H847        H  0.20309649  0.76947073  0.18846604     0.31200
H848        H  0.11111529  0.93224804  0.19301598     0.35200
H849        H  0.09526145  0.89921663  0.17052426     0.28000
H850        H  0.29763834  0.91131823  0.19972211     0.32200
H851        H  0.26908390  0.82060458  0.17789888     0.35000
H852        H  0.17038103  0.86392648  0.23748679     0.27700
H853        H  0.08134609  0.86925474  0.16961856     0.40500
H854        H  0.18161711  0.94798088  0.14726030     0.30600
H855        H  0.16860578  0.98679292  0.19209464     0.38200
H856        H  0.22135652  0.78789013  0.19807506     0.30100
H857        H  0.20621622  0.88868832  0.13481905     0.30100
H858        H  0.30218828  0.88151702  0.19328978     0.30400
Zr859      Zr  0.39308157  0.03592898  0.05394065     2.17500
O860        O  0.39544147  0.98605858  0.04811335    -0.52000
O861        O  0.35200570  0.03099726  0.03917758    -0.75200
O862        O  0.37502948  0.00476208  0.07287193    -0.82000
O863        O  0.43065173  0.06155356  0.02347732    -0.83700
O864        O  0.36475642  0.03240876  0.09066975    -0.79300
O865        O  0.43102667  0.02459174  0.03756610    -0.91000
O866        O  0.32470730  0.07031562  0.04096449    -0.76900
O867        O  0.36050710  0.06474284  0.06588589    -0.86400
O868        O  0.38465364  0.07761758  0.04078133    -0.86100
O869        O  0.41628786  0.04734941  0.07444989    -0.72900
O870        O  0.43709470  0.06093302  0.05080565    -0.85000
Zr871      Zr  0.41919377  0.14109260  0.06982791     2.26400
Zr872      Zr  0.38407940  0.07783293  0.08593115     2.06300
Zr873      Zr  0.42831433  0.10253991  0.03769877     2.10000
Zr874      Zr  0.35188089  0.10565568  0.05284933     1.78800
O875        O  0.47342691  0.10090810  0.02608259    -0.93800
O876        O  0.30801301  0.10327064  0.06540583    -0.41600
O877        O  0.39527745  0.13120727  0.04939147    -0.78200
O878        O  0.37415675  0.11894511  0.07320464    -0.96900
O879        O  0.42842268  0.10049726  0.08296562    -0.90200
O880        O  0.45154416  0.11232096  0.05785690    -0.93100
C881        C  0.32999083  0.04572989  0.03623388     1.00700
C882        C  0.43917392  0.03696226  0.02678158     1.13600
C883        C  0.36532127  0.00849982  0.08487747     1.04400
O884        O  0.33747653  0.09158499  0.09388874    -0.95200
O885        O  0.39456124  0.11209805  0.10290954    -0.91000
O886        O  0.41410483  0.15068478  0.09325944    -0.84100
C887        C  0.40547602  0.13680725  0.10339139     1.11000
O888        O  0.47947349  0.02412637  0.07197628    -0.97200
Zr889      Zr  0.46014293  0.07170419  0.07102846     1.88900
O890        O  0.46635282  0.15183107  0.07735405    -0.73900
O891        O  0.39819679  0.05400307  0.10623302    -0.53100
O892        O  0.47077283  0.06094089  0.09405135    -0.97800
O893        O  0.50375172  0.06292503  0.05888587    -0.55000
O894        O  0.49055770  0.11029016  0.07757904    -0.74400
C895        C  0.48867391  0.13707735  0.07921908     0.98000
O896        O  0.39627539  0.18651517  0.07363217    -0.63200
O897        O  0.40351766  0.12188680  0.01864729    -0.58000
O898        O  0.43901753  0.17448500  0.05416096    -0.94700
O899        O  0.45176915  0.14943040  0.03592958    -0.93100
O900        O  0.33813040  0.12625414  0.03173036    -0.93500
O901        O  0.33023877  0.15179844  0.05599309    -0.92200
C902        C  0.45161501  0.17226832  0.04296969     1.16800
H903        H  0.37763250  0.07323826  0.03205104     0.32800
H904        H  0.36194018  0.13152654  0.07812689     0.43600
H905        H  0.46900927  0.12186337  0.05580564     0.37100
H906        H  0.41998749  0.03058073  0.07955936     0.33600
H907        H  0.29288259  0.10523466  0.05869876     0.25400
H908        H  0.41694659  0.06196979  0.10849166     0.31300
H909        H  0.46180879  0.04239632  0.09570552     0.37200
H910        H  0.34255984  0.11168473  0.02501277     0.31700
H911        H  0.41130362  0.14112795  0.01754361     0.30600
H912        H  0.46849462  0.10250590  0.01659569     0.32300
H913        H  0.51909267  0.06880482  0.06496548     0.31200
H914        H  0.34364603  0.16525488  0.05190825     0.35200
H915        H  0.40991184  0.20114579  0.07079145     0.28000
H916        H  0.37606982  0.97870942  0.04951084     0.32200
H917        H  0.47057825  0.01414688  0.06442960     0.35000
H918        H  0.41098302  0.11117160  0.01099274     0.27700
H919        H  0.38088839  0.18729853  0.06700431     0.40500
H920        H  0.33171756  0.07620599  0.09992492     0.30600
H921        H  0.30662089  0.08342770  0.06836978     0.38200
H922        H  0.50387201  0.07727545  0.05178626     0.30100
H923        H  0.38531156  0.06131655  0.11315504     0.30100
H924        H  0.40696657  0.97725770  0.05516498     0.30400
Zr925      Zr  0.29307819  0.38822499  0.18923577     2.17500
O926        O  0.24180419  0.38791260  0.19170806    -0.52000
O927        O  0.29565247  0.43174878  0.20248901    -0.75200
O928        O  0.27849116  0.36599911  0.21037360    -0.82000
O929        O  0.28646844  0.40417229  0.15119689    -0.83700
O930        O  0.32022618  0.36768015  0.22074466    -0.79300
O931        O  0.26383469  0.41090013  0.17083690    -0.91000
O932        O  0.33982103  0.44977231  0.20014972    -0.76900
O933        O  0.33751091  0.39482267  0.20051159    -0.86400
O934        O  0.32420291  0.41239387  0.17447779    -0.86100
O935        O  0.31261832  0.34168871  0.19470361    -0.72900
O936        O  0.29876884  0.35721921  0.17042885    -0.85000
Zr937      Zr  0.39207421  0.34446462  0.17306226     2.26400
Zr938      Zr  0.35687488  0.34941246  0.20623658     2.06300
Zr939      Zr  0.33065911  0.38143452  0.15593922     2.10000
Zr940      Zr  0.36763408  0.41969601  0.18589643     1.78800
O941        O  0.30600470  0.35922003  0.13750029    -0.93800
O942        O  0.39832054  0.43298935  0.20424944    -0.41600
O943        O  0.37453991  0.39014721  0.16692237    -0.78200
O944        O  0.38756067  0.37502343  0.19182960    -0.96900
O945        O  0.36200876  0.31928539  0.18763625    -0.90200
O946        O  0.34880764  0.33615280  0.16154022    -0.93100
C947        C  0.31499371  0.45002269  0.20523454     1.00700
C948        C  0.26591884  0.41389866  0.15800711     1.13600
C949        C  0.29444617  0.35963841  0.22029526     1.04400
O950        O  0.38037051  0.36717744  0.22600005    -0.95200
O951        O  0.40425264  0.32710896  0.20922250    -0.91000
O952        O  0.42623192  0.32812395  0.18923790    -0.84100
C953        C  0.42584767  0.32247016  0.20163996     1.11000
O954        O  0.26875542  0.29957394  0.17754330    -0.97200
Zr955      Zr  0.31863864  0.31208426  0.17618008     1.88900
O956        O  0.39622560  0.29414146  0.16931303    -0.73900
O957        O  0.34502342  0.30619535  0.21796948    -0.53100
O958        O  0.30870553  0.27553759  0.19245387    -0.97800
O959        O  0.30405175  0.29149447  0.15514734    -0.55000
O960        O  0.35244502  0.27515874  0.17169416    -0.74400
C961        C  0.37906694  0.27315408  0.16951184     0.98000
O962        O  0.43988368  0.35984023  0.16755580    -0.63200
O963        O  0.34217886  0.42433235  0.14382331    -0.58000
O964        O  0.40104892  0.34462966  0.14959028    -0.94700
O965        O  0.36470316  0.36717453  0.13935465    -0.93100
O966        O  0.36432100  0.46351825  0.17339490    -0.93500
O967        O  0.41388922  0.43631464  0.17867545    -0.92200
C968        C  0.38823724  0.35370463  0.13924825     1.16800
H969        H  0.31625522  0.43020835  0.17180114     0.32800
H970        H  0.40573387  0.37806743  0.19597388     0.43600
H971        H  0.35144594  0.32439025  0.15383053     0.37100
H972        H  0.30048808  0.32985189  0.19996205     0.33600
H973        H  0.39974744  0.45380430  0.20373306     0.25400
H974        H  0.35546914  0.29122077  0.21319182     0.31300
H975        H  0.32742876  0.26785045  0.19493417     0.37200
H976        H  0.34592227  0.47193409  0.17589404     0.31700
H977        H  0.33328704  0.42170718  0.13503628     0.30600
H978        H  0.30995658  0.37152092  0.12981154     0.32300
H979        H  0.28835112  0.30359189  0.15203166     0.31200
H980        H  0.41750230  0.42641821  0.17021146     0.35200
H981        H  0.44643195  0.37073128  0.17534995     0.28000
H982        H  0.23806806  0.39766664  0.20020017     0.32200
H983        H  0.26047925  0.31380667  0.18358982     0.35000
H984        H  0.33086830  0.43940371  0.14807646     0.27700
H985        H  0.45157858  0.34251167  0.16753585     0.40500
H986        H  0.37447516  0.38716997  0.22663984     0.30600
H987        H  0.38689342  0.42947993  0.21228088     0.38200
H988        H  0.29499874  0.27333252  0.15748687     0.30100
H989        H  0.35502074  0.30792203  0.22653995     0.30100
H990        H  0.23670610  0.36794293  0.19331394     0.30400
Zr991      Zr  0.13436042  0.54826531  0.05408041     2.17500
O992        O  0.13440408  0.49687467  0.05266048    -0.52000
O993        O  0.17440238  0.54447962  0.03852404    -0.75200
O994        O  0.10397395  0.53183239  0.03557616    -0.82000
O995        O  0.16176244  0.54690854  0.09092314    -0.83700
O996        O  0.09583227  0.57055813  0.02283491    -0.79300
O997        O  0.15550214  0.51902103  0.07279203    -0.91000
O998        O  0.19920227  0.58546870  0.03930005    -0.76900
O999        O  0.14082518  0.58915921  0.04038997    -0.86400
O1000       O  0.16613286  0.57920104  0.06536685    -0.86100
O1001       O  0.08810898  0.57046397  0.05103900    -0.72900
O1002       O  0.11139809  0.56059583  0.07465581    -0.85000
Zr1003     Zr  0.10514771  0.65295688  0.06884238     2.26400
Zr1004     Zr  0.09554531  0.61163163  0.03732908     2.06300
Zr1005     Zr  0.14327786  0.59279541  0.08557495     2.10000
Zr1006     Zr  0.17256693  0.61961189  0.05175533     1.78800
O1007       O  0.13670728  0.57478836  0.10791561    -0.93800
O1008       O  0.18194492  0.64153906  0.03042503    -0.41600
O1009       O  0.15129955  0.63356691  0.07225010    -0.78200
O1010       O  0.12799170  0.64250415  0.04829534    -0.96900
O1011       O  0.07324165  0.62269982  0.05759281    -0.90200
O1012       O  0.09742876  0.61276721  0.08255346    -0.93100
C1013       C  0.19520441  0.56037533  0.03500696     1.00700
C1014       C  0.16383755  0.52319636  0.08497266     1.13600
C1015       C  0.09330963  0.54412716  0.02529312     1.04400
O1016       O  0.11655988  0.63218238  0.01759033    -0.95200
O1017       O  0.06886063  0.65717793  0.03617965    -0.91000
O1018       O  0.08391110  0.68489082  0.05315270    -0.84100
C1019       C  0.06949360  0.68090482  0.04258850     1.11000
O1020       O  0.04936758  0.53417678  0.07273382    -0.97200
Zr1021     Zr  0.06615638  0.58268504  0.07115819     1.88900
O1022       O  0.05726920  0.66263245  0.07560125    -0.73900
O1023       O  0.05016870  0.60716125  0.02602481    -0.53100
O1024       O  0.02341552  0.57431737  0.05823988    -0.97800
O1025       O  0.05106350  0.57599224  0.09397404    -0.55000
O1026       O  0.03350520  0.62094056  0.07503150    -0.74400
C1027       C  0.03475753  0.64776924  0.07653192     0.98000
O1028       O  0.12507662  0.70017808  0.07121847    -0.63200
O1029       O  0.19165405  0.60740363  0.09018386    -0.58000
O1030       O  0.11211786  0.66564674  0.09166255    -0.94700
O1031       O  0.13353140  0.62904810  0.10211340    -0.93100
O1032       O  0.21698669  0.61743520  0.06390210    -0.93500
O1033       O  0.19603360  0.66531920  0.05265791    -0.92200
C1034       C  0.12182579  0.65352932  0.10203106     1.16800
H1035       H  0.18396618  0.56995353  0.06705350     0.32800
H1036       H  0.13067622  0.65952136  0.04320277     0.43600
H1037       H  0.08830324  0.61753055  0.09078310     0.37100
H1038       H  0.07352329  0.55870067  0.04726729     0.33600
H1039       H  0.20212195  0.63757632  0.02858851     0.25400
H1040       H  0.05473637  0.60349966  0.01661922     0.31300
H1041       H  0.00839238  0.57087792  0.06486373     0.37200
H1042       H  0.23180383  0.62104552  0.05720137     0.31700
H1043       H  0.19136347  0.61371951  0.09952075     0.30600
H1044       H  0.15464482  0.57908079  0.11257238     0.32300
H1045       H  0.06264625  0.56008786  0.09725992     0.31200
H1046       H  0.18046145  0.67925403  0.05229694     0.35200
H1047       H  0.14328031  0.69733656  0.07587097     0.28000
H1048       H  0.13701487  0.49229079  0.04317950     0.32200
H1049       H  0.05703927  0.52465318  0.06478015     0.35000
H1050       H  0.20265273  0.58963633  0.09031086     0.27700
H1051       H  0.13069643  0.70582335  0.06217102     0.40500
H1052       H  0.10706443  0.65065110  0.01653651     0.30600
H1053       H  0.17153367  0.62975163  0.02396375     0.38200
H1054       H  0.03163481  0.56831657  0.09331575     0.30100
H1055       H  0.04197983  0.58926090  0.02929845     0.30100
H1056       H  0.11474424  0.49115483  0.05469485     0.30400
Zr1057     Zr  0.29920400  0.88293157  0.80291777     2.17500
O1058       O  0.24868308  0.88274259  0.79813757    -0.52000
O1059       O  0.29497123  0.92536062  0.78926433    -0.75200
O1060       O  0.27106915  0.90319991  0.82238355    -0.82000
O1061       O  0.31819792  0.84577416  0.77129348    -0.83700
O1062       O  0.30146104  0.90897391  0.83958339    -0.79300
O1063       O  0.28357434  0.84631587  0.78669094    -0.91000
O1064       O  0.33662849  0.94924739  0.79016348    -0.76900
O1065       O  0.33177935  0.91250675  0.81450515    -0.86400
O1066       O  0.33983594  0.88939666  0.78865388    -0.86100
O1067       O  0.31103402  0.85724899  0.82270263    -0.72900
O1068       O  0.32114337  0.83814403  0.79821992    -0.85000
Zr1069     Zr  0.40318729  0.84791438  0.81548183     2.26400
Zr1070     Zr  0.34505431  0.88654984  0.83379226     2.06300
Zr1071     Zr  0.36159761  0.84452363  0.78405530     2.10000
Zr1072     Zr  0.37170001  0.91898878  0.80044774     1.78800
O1073       O  0.35449799  0.80073673  0.77183567    -0.93800
O1074       O  0.37593945  0.96256173  0.81312808    -0.41600
O1075       O  0.39361857  0.87421934  0.79575615    -0.78200
O1076       O  0.38532332  0.89426335  0.82012589    -0.96900
O1077       O  0.36337929  0.84075708  0.82946038    -0.90200
O1078       O  0.37140635  0.81884005  0.80350048    -0.93100
C1079       C  0.31090181  0.94645711  0.78631802     1.00700
C1080       C  0.29384400  0.83802817  0.77544431     1.13600
C1081       C  0.27709189  0.91193236  0.83433573     1.04400
O1082       O  0.36084905  0.93219472  0.84212128    -0.95200
O1083       O  0.38257044  0.87494585  0.84911038    -0.91000
O1084       O  0.41540013  0.84821589  0.83849900    -0.84100
C1085       C  0.40510632  0.85993708  0.84882568     1.11000
O1086       O  0.28225318  0.79725752  0.81659978    -0.97200
Zr1087     Zr  0.33154903  0.81203012  0.81743717     1.88900
O1088       O  0.41170174  0.79965488  0.82204033    -0.73900
O1089       O  0.32505511  0.87241499  0.85497886    -0.53100
O1090       O  0.31802103  0.79597782  0.83939001    -0.97800
O1091       O  0.32239409  0.77068065  0.80370527    -0.55000
O1092       O  0.36842037  0.77894481  0.82334609    -0.74400
C1093       C  0.39549149  0.77850599  0.82427903     0.98000
O1094       O  0.45013544  0.86867305  0.81770013    -0.63200
O1095       O  0.37985484  0.87015444  0.76503956    -0.58000
O1096       O  0.43395722  0.82654796  0.79936249    -0.94700
O1097       O  0.40740425  0.81854442  0.78095498    -0.93100
O1098       O  0.38984053  0.93131498  0.77866558    -0.93500
O1099       O  0.41943934  0.93817172  0.80172139    -0.92200
C1100       C  0.43048299  0.81594537  0.78781993     1.16800
H1101       H  0.33484496  0.89752407  0.78023420     0.32800
H1102       H  0.39934280  0.90502932  0.82489569     0.43600
H1103       H  0.37967241  0.80097933  0.80103524     0.37100
H1104       H  0.29454091  0.85446351  0.82818121     0.33600
H1105       H  0.35643431  0.96699071  0.81600283     0.25400
H1106       H  0.33283135  0.85336558  0.85667080     0.31300
H1107       H  0.31415693  0.77557401  0.83826207     0.37200
H1108       H  0.38960243  0.95220492  0.77846203     0.31700
H1109       H  0.39902033  0.87628364  0.76775341     0.30600
H1110       H  0.35592769  0.80610258  0.76240248     0.32300
H1111       H  0.31934088  0.75511434  0.81006624     0.31200
H1112       H  0.43193814  0.92196252  0.79972331     0.35200
H1113       H  0.44839448  0.88292093  0.82483065     0.28000
H1114       H  0.24247245  0.90252567  0.79935307     0.32200
H1115       H  0.27308433  0.81095705  0.81058869     0.35000
H1116       H  0.38321631  0.85543825  0.75826128     0.27700
H1117       H  0.46193389  0.85353723  0.82156993     0.40500
H1118       H  0.34430000  0.94483085  0.84121095     0.30600
H1119       H  0.38590552  0.95718470  0.82135743     0.38200
H1120       H  0.34073267  0.76619911  0.79947935     0.30100
H1121       H  0.33429964  0.88474204  0.86162004     0.30100
H1122       H  0.23993741  0.87228583  0.80555349     0.30400
Zr1123     Zr  0.13942957  0.02947902  0.94105178     2.17500
O1124       O  0.13832703  0.97952574  0.94672455    -0.52000
O1125       O  0.18049804  0.02562951  0.95596699    -0.75200
O1126       O  0.16060920  0.99984445  0.92232960    -0.82000
O1127       O  0.10185004  0.05390076  0.97157488    -0.83700
O1128       O  0.16715863  0.02733330  0.90412948    -0.79300
O1129       O  0.10133257  0.01719239  0.95730898    -0.91000
O1130       O  0.20610717  0.06591642  0.95383868    -0.76900
O1131       O  0.17026674  0.05923070  0.92867519    -0.86400
O1132       O  0.14698483  0.07153172  0.95411928    -0.86100
O1133       O  0.11537110  0.03995025  0.92053359    -0.72900
O1134       O  0.09478798  0.05309860  0.94431398    -0.85000
Zr1135     Zr  0.10866043  0.13300330  0.92515873     2.26400
Zr1136     Zr  0.14595017  0.07179340  0.90875395     2.06300
Zr1137     Zr  0.10260354  0.09501591  0.95742559     2.10000
Zr1138     Zr  0.17836189  0.10022016  0.94167275     1.78800
O1139       O  0.05846566  0.09071669  0.96967261    -0.93800
O1140       O  0.22232499  0.09602411  0.92925294    -0.41600
O1141       O  0.13418431  0.12426226  0.94526725    -0.78200
O1142       O  0.15477219  0.11324078  0.92151711    -0.96900
O1143       O  0.10061636  0.09226855  0.91200019    -0.90200
O1144       O  0.07793224  0.10345540  0.93754458    -0.93100
C1145       C  0.20206885  0.04125275  0.95868535     1.00700
C1146       C  0.09317634  0.02939443  0.96816960     1.13600
C1147       C  0.16922522  0.00390501  0.91018155     1.04400
O1148       O  0.19369725  0.08365007  0.90158290    -0.95200
O1149       O  0.13738711  0.10694772  0.89186339    -0.91000
O1150       O  0.11228118  0.14191521  0.90168957    -0.84100
C1151       C  0.12382752  0.13036004  0.89157015     1.11000
O1152       O  0.05462752  0.01369024  0.92262415    -0.97200
Zr1153     Zr  0.07042945  0.06249504  0.92430424     1.88900
O1154       O  0.05970200  0.14148478  0.91932738    -0.73900
O1155       O  0.12985144  0.05218059  0.88771665    -0.53100
O1156       O  0.05638573  0.05288821  0.90156539    -0.97800
O1157       O  0.02921197  0.05180742  0.93785395    -0.55000
O1158       O  0.03696192  0.09927156  0.91863413    -0.74400
C1159       C  0.03752407  0.12628535  0.91765029     0.98000
O1160       O  0.12636179  0.18068060  0.92145123    -0.63200
O1161       O  0.12720017  0.11390766  0.97663918    -0.58000
O1162       O  0.09210027  0.16757289  0.94088393    -0.94700
O1163       O  0.07950728  0.14247212  0.95908181    -0.93100
O1164       O  0.19110666  0.12184553  0.96271786    -0.93500
O1165       O  0.20126956  0.14578613  0.93875113    -0.92200
C1166       C  0.07980117  0.16545635  0.95212405     1.16800
H1167       H  0.15435753  0.06767203  0.96283132     0.32800
H1168       H  0.16630243  0.12625599  0.91655930     0.43600
H1169       H  0.06033662  0.11234810  0.93996284     0.37100
H1170       H  0.11236672  0.02292178  0.91544969     0.33600
H1171       H  0.23735712  0.10069936  0.93571801     0.25400
H1172       H  0.14716086  0.04959799  0.88233810     0.31300
H1173       H  0.07356896  0.04510657  0.89733379     0.37200
H1174       H  0.21174257  0.11877006  0.96356700     0.31700
H1175       H  0.12874494  0.13440140  0.97491078     0.30600
H1176       H  0.04346243  0.09217547  0.96288088     0.32300
H1177       H  0.01359370  0.04907271  0.93145024     0.31200
H1178       H  0.18547377  0.15917868  0.93739954     0.35200
H1179       H  0.14575865  0.17810471  0.91797739     0.28000
H1180       H  0.15831785  0.97334273  0.94644144     0.32200
H1181       H  0.06172275  0.00462867  0.93079588     0.35000
H1182       H  0.11328604  0.11240034  0.98391776     0.27700
H1183       H  0.11538554  0.18830204  0.91391962     0.40500
H1184       H  0.19134759  0.09344891  0.89301865     0.30600
H1185       H  0.22467266  0.07555056  0.92762147     0.38200
H1186       H  0.02461600  0.06979610  0.94234787     0.30100
H1187       H  0.12319673  0.03282291  0.88967387     0.30100
H1188       H  0.12926543  0.97007112  0.93907891     0.30400
Zr1189     Zr  0.74122610  0.63114877  0.80272481     2.17500
O1190       O  0.79088165  0.62879503  0.79641545    -0.52000
O1191       O  0.74190786  0.58838726  0.78916885    -0.75200
O1192       O  0.77096962  0.61142412  0.82184100    -0.82000
O1193       O  0.71724562  0.66432525  0.77177196    -0.83700
O1194       O  0.74301081  0.60639854  0.84001446    -0.79300
O1195       O  0.75497834  0.66585391  0.78530846    -0.91000
O1196       O  0.69894902  0.56692767  0.79010622    -0.76900
O1197       O  0.71070304  0.60400326  0.81640544    -0.86400
O1198       O  0.69770853  0.62471115  0.79033177    -0.86100
O1199       O  0.73401611  0.65879162  0.82241371    -0.72900
O1200       O  0.71936144  0.67594178  0.79815916    -0.85000
Zr1201     Zr  0.64087605  0.66988750  0.81881073     2.26400
Zr1202     Zr  0.70103962  0.63229533  0.83554860     2.06300
Zr1203     Zr  0.67601733  0.66960307  0.78586571     2.10000
Zr1204     Zr  0.66876334  0.59616933  0.80404597     1.78800
O1205       O  0.68270543  0.71192930  0.77261778    -0.93800
O1206       O  0.68172840  0.55478919  0.81694572    -0.41600
O1207       O  0.64625337  0.64094295  0.79937088    -0.78200
O1208       O  0.65853956  0.62354581  0.82352429    -0.96900
O1209       O  0.68294678  0.67792319  0.83101333    -0.90200
O1210       O  0.67089548  0.69746304  0.80510938    -0.93100
C1211       C  0.72448371  0.56876991  0.78584334     1.00700
C1212       C  0.74211994  0.67323148  0.77452701     1.13600
C1213       C  0.76646070  0.60320110  0.83402606     1.04400
O1214       O  0.68548213  0.58936210  0.84653967    -0.95200
O1215       O  0.66751265  0.64625913  0.85238894    -0.91000
O1216       O  0.63012582  0.66641046  0.84201302    -0.84100
C1217       C  0.64313323  0.65807263  0.85240878     1.11000
O1218       O  0.76297165  0.71927242  0.81730789    -0.97200
Zr1219     Zr  0.71379947  0.70393396  0.81723289     1.88900
O1220       O  0.63728649  0.71919094  0.82504721    -0.73900
O1221       O  0.72557044  0.65211321  0.85466637    -0.53100
O1222       O  0.72673797  0.71887055  0.83947789    -0.97800
O1223       O  0.72708589  0.74054172  0.80149315    -0.55000
O1224       O  0.68027238  0.74003948  0.82278146    -0.74400
C1225       C  0.65378353  0.74069424  0.82536188     0.98000
O1226       O  0.59276215  0.65551793  0.82429732    -0.63200
O1227       O  0.65426212  0.64726045  0.76666277    -0.58000
O1228       O  0.60714715  0.68976281  0.80367499    -0.94700
O1229       O  0.62931578  0.69480126  0.78394455    -0.93100
O1230       O  0.64054359  0.57865096  0.78562040    -0.93500
O1231       O  0.62490224  0.57406748  0.81130402    -0.92200
C1232       C  0.60774700  0.69843275  0.79171757     1.16800
H1233       H  0.70071230  0.61627930  0.78176716     0.32800
H1234       H  0.64521522  0.61356088  0.82905088     0.43600
H1235       H  0.66259224  0.71519133  0.80252142     0.37100
H1236       H  0.75157999  0.66150686  0.82713183     0.33600
H1237       H  0.67089704  0.55648657  0.82527992     0.25400
H1238       H  0.72570423  0.63681867  0.86132495     0.31300
H1239       H  0.73249825  0.73885138  0.83854084     0.37200
H1240       H  0.63087725  0.59551980  0.78207149     0.31700
H1241       H  0.66632203  0.63073826  0.76464939     0.30600
H1242       H  0.67762694  0.72776184  0.77855425     0.32300
H1243       H  0.71186640  0.75482021  0.80204594     0.31200
H1244       H  0.60996117  0.58790423  0.80908909     0.35200
H1245       H  0.58127507  0.67298981  0.82420997     0.28000
H1246       H  0.79675584  0.60916536  0.79831107     0.32200
H1247       H  0.77375116  0.70267382  0.81414498     0.35000
H1248       H  0.63636302  0.63915324  0.77000523     0.27700
H1249       H  0.58615056  0.64449060  0.81656405     0.40500
H1250       H  0.68973050  0.59254511  0.85601555     0.30600
H1251       H  0.67293281  0.53869270  0.81222980     0.38200
H1252       H  0.72455992  0.73175841  0.79267572     0.30100
H1253       H  0.74558760  0.65428859  0.85198796     0.30100
H1254       H  0.80090211  0.64043927  0.80307437     0.30400
Zr1255     Zr  0.88630464  0.47197080  0.94162069     2.17500
O1256       O  0.88150873  0.52056066  0.94923946    -0.52000
O1257       O  0.84443500  0.46961389  0.95607009    -0.75200
O1258       O  0.86527113  0.50351833  0.92346853    -0.82000
O1259       O  0.92486488  0.44628364  0.97167274    -0.83700
O1260       O  0.86213046  0.47856910  0.90425746    -0.79300
O1261       O  0.92195517  0.48522764  0.95888207    -0.91000
O1262       O  0.82507419  0.42599899  0.95391776    -0.76900
O1263       O  0.85959601  0.44174414  0.92740593    -0.86400
O1264       O  0.88194533  0.42735019  0.95306705    -0.86100
O1265       O  0.91346338  0.46757181  0.92150680    -0.72900
O1266       O  0.93213187  0.45106838  0.94533892    -0.85000
Zr1267     Zr  0.92778718  0.37462378  0.92293845     2.26400
Zr1268     Zr  0.88736429  0.43556701  0.90769648     2.06300
Zr1269     Zr  0.92754870  0.40657790  0.95658428     2.10000
Zr1270     Zr  0.85428104  0.39828380  0.93893869     1.78800
O1271       O  0.96746660  0.40953501  0.97173562    -0.93800
O1272       O  0.80922710  0.40255053  0.92741732    -0.41600
O1273       O  0.89986355  0.37713557  0.94261202    -0.78200
O1274       O  0.88062408  0.39161415  0.91879146    -0.96900
O1275       O  0.93362501  0.41834130  0.91170182    -0.90200
O1276       O  0.95492538  0.40423686  0.93707884    -0.93100
C1277       C  0.82612689  0.45062435  0.95923287     1.00700
C1278       C  0.93106499  0.47210404  0.96931431     1.13600
C1279       C  0.85784907  0.50085758  0.91103895     1.04400
O1280       O  0.84449921  0.42111019  0.89618453    -0.95200
O1281       O  0.90524554  0.40541549  0.89000823    -0.91000
O1282       O  0.92647986  0.36751811  0.89944053    -0.84100
C1283       C  0.91876549  0.38193484  0.88937032     1.11000
O1284       O  0.96784461  0.49836499  0.92992778    -0.97200
Zr1285     Zr  0.95952043  0.44833598  0.92596320     1.88900
O1286       O  0.97667062  0.37233093  0.91591608    -0.73900
O1287       O  0.90312236  0.46523092  0.88944003    -0.53100
O1288       O  0.97693211  0.46823207  0.90534194    -0.97800
O1289       O  0.99933723  0.45692626  0.94075127    -0.55000
O1290       O  0.99487898  0.41661317  0.91739560    -0.74400
C1291       C  0.99682980  0.39026093  0.91465607     0.98000
O1292       O  0.91088141  0.32704460  0.91820798    -0.63200
O1293       O  0.90043688  0.38098387  0.97315789    -0.58000
O1294       O  0.95014348  0.34029720  0.93733852    -0.94700
O1295       O  0.95544706  0.36170684  0.95730386    -0.93100
O1296       O  0.84679016  0.36633004  0.95746136    -0.93500
O1297       O  0.83311824  0.35333575  0.93275019    -0.92200
C1298       C  0.95941284  0.34070653  0.94927386     1.16800
H1299       H  0.87424898  0.42910093  0.96185155     0.32800
H1300       H  0.87070336  0.37867298  0.91305016     0.43600
H1301       H  0.97325796  0.39639957  0.93914061     0.37100
H1302       H  0.91556076  0.48563713  0.91722353     0.33600
H1303       H  0.80203415  0.42151619  0.92977813     0.25400
H1304       H  0.92239502  0.45851817  0.88728371     0.31300
H1305       H  0.96069031  0.47885877  0.90171085     0.37200
H1306       H  0.83855059  0.37805362  0.96459465     0.31700
H1307       H  0.91483515  0.37075502  0.97839640     0.30600
H1308       H  0.98381051  0.41427086  0.96604177     0.32300
H1309       H  0.01136517  0.43990769  0.94002960     0.31200
H1310       H  0.84944019  0.34084647  0.93091749     0.35200
H1311       H  0.90316790  0.32017846  0.92672019     0.28000
H1312       H  0.86122960  0.52516320  0.94809971     0.32200
H1313       H  0.96042945  0.50186351  0.93894508     0.35000
H1314       H  0.89325733  0.39572529  0.97923814     0.27700
H1315       H  0.89394488  0.32971956  0.91258912     0.40500
H1316       H  0.84525407  0.43119946  0.88762343     0.30600
H1317       H  0.81436815  0.40407827  0.91795819     0.38200
H1318       H  0.99115316  0.45586719  0.94974924     0.30100
H1319       H  0.89143399  0.45938366  0.88177836     0.30100
H1320       H  0.89142967  0.53211266  0.94254006     0.30400
Zr1321     Zr  0.79928494  0.14321757  0.80458440     2.17500
O1322       O  0.74795083  0.14541159  0.80254922    -0.52000
O1323       O  0.79640881  0.10073924  0.79069708    -0.75200
O1324       O  0.78516107  0.16914636  0.78428858    -0.82000
O1325       O  0.79491045  0.12456925  0.84232791    -0.83700
O1326       O  0.82581441  0.16550634  0.77315406    -0.79300
O1327       O  0.76928175  0.12289112  0.82326891    -0.91000
O1328       O  0.83900510  0.07870826  0.79121881    -0.76900
O1329       O  0.84175944  0.13570190  0.79193409    -0.86400
O1330       O  0.82984386  0.11425577  0.81760993    -0.86100
O1331       O  0.82130871  0.18918174  0.80027870    -0.72900
O1332       O  0.80969455  0.17005695  0.82435029    -0.85000
Zr1333     Zr  0.90249928  0.17731807  0.81980399     2.26400
Zr1334     Zr  0.86394032  0.18066909  0.78748918     2.06300
Zr1335     Zr  0.84156988  0.14120700  0.83700211     2.10000
Zr1336     Zr  0.87121617  0.10607239  0.80478037     1.78800
O1337       O  0.82296087  0.15525937  0.85846672    -0.93800
O1338       O  0.89635161  0.09119716  0.78489372    -0.41600
O1339       O  0.88315167  0.13170063  0.82450215    -0.78200
O1340       O  0.89376906  0.15048765  0.80013736    -0.96900
O1341       O  0.87275434  0.20673459  0.80699174    -0.90200
O1342       O  0.86133082  0.18646613  0.83269257    -0.93100
C1343       C  0.81335302  0.08079782  0.78723613     1.00700
C1344       C  0.77219375  0.11886711  0.83599185     1.13600
C1345       C  0.80076617  0.17526253  0.77420958     1.04400
O1346       O  0.88770083  0.16365611  0.76766960    -0.95200
O1347       O  0.91130762  0.20417031  0.78506762    -0.91000
O1348       O  0.93534851  0.19691141  0.80423461    -0.84100
C1349       C  0.93379232  0.20629893  0.79239962     1.11000
O1350       O  0.78263971  0.23148195  0.82014988    -0.97200
Zr1351     Zr  0.83139837  0.21492327  0.81972588     1.88900
O1352       O  0.91131178  0.22662687  0.82456786    -0.73900
O1353       O  0.85086387  0.22473649  0.77675560    -0.53100
O1354       O  0.81957484  0.25460802  0.80544809    -0.97800
O1355       O  0.82109863  0.23188833  0.84202933    -0.55000
O1356       O  0.86899977  0.24897541  0.82302002    -0.74400
C1357       C  0.89591109  0.24890526  0.82468212     0.98000
O1358       O  0.94925025  0.15597248  0.82137688    -0.63200
O1359       O  0.85391304  0.09439978  0.84504146    -0.58000
O1360       O  0.91492027  0.17459279  0.84288974    -0.94700
O1361       O  0.87817515  0.15276185  0.85313842    -0.93100
O1362       O  0.86521268  0.06274801  0.81742012    -0.93500
O1363       O  0.91644890  0.08419248  0.80999218    -0.92200
C1364       C  0.90239374  0.16515313  0.85322342     1.16800
H1365       H  0.82067951  0.09668182  0.81989935     0.32800
H1366       H  0.91129936  0.14730328  0.79546880     0.43600
H1367       H  0.86565175  0.19674078  0.84068929     0.37100
H1368       H  0.80935785  0.20246424  0.79570005     0.33600
H1369       H  0.88551405  0.09961850  0.77750958     0.25400
H1370       H  0.85845591  0.23963181  0.78264271     0.31300
H1371       H  0.83792697  0.26285709  0.80276890     0.37200
H1372       H  0.85840786  0.04855157  0.81096459     0.31700
H1373       H  0.87476021  0.09337924  0.84426559     0.30600
H1374       H  0.81516429  0.17438234  0.85699690     0.32300
H1375       H  0.81014537  0.24947335  0.84077627     0.31200
H1376       H  0.92465267  0.09608900  0.81707846     0.35200
H1377       H  0.94709669  0.14057723  0.82789976     0.28000
H1378       H  0.74359532  0.13590538  0.79405575     0.32200
H1379       H  0.77153877  0.21512515  0.82331848     0.35000
H1380       H  0.85037177  0.09533426  0.85468357     0.27700
H1381       H  0.95187652  0.14603226  0.81283531     0.40500
H1382       H  0.88151547  0.17666008  0.76058714     0.30600
H1383       H  0.91443698  0.10171672  0.78495949     0.38200
H1384       H  0.83945459  0.23843971  0.84561034     0.30100
H1385       H  0.86295600  0.22562581  0.76877850     0.30100
H1386       H  0.74345534  0.16554794  0.80103632     0.30400
Zr1387     Zr  0.64373326  0.98390235  0.93973991     2.17500
O1388       O  0.64153656  0.03516286  0.94147045    -0.52000
O1389       O  0.68437935  0.98916433  0.95496993    -0.75200
O1390       O  0.61357079  0.99770837  0.95900120    -0.82000
O1391       O  0.66526741  0.98572671  0.90228074    -0.83700
O1392       O  0.61497241  0.95768126  0.97078996    -0.79300
O1393       O  0.66056909  0.01423297  0.92024816    -0.91000
O1394       O  0.70727499  0.94716632  0.95668087    -0.76900
O1395       O  0.64936738  0.94280699  0.95339942    -0.86400
O1396       O  0.67706906  0.95325156  0.92907846    -0.86100
O1397       O  0.59744176  0.96113128  0.94210420    -0.72900
O1398       O  0.62263749  0.97014032  0.91898367    -0.85000
Zr1399     Zr  0.61734324  0.87807487  0.92486780     2.26400
Zr1400     Zr  0.60425739  0.91951255  0.95576763     2.06300
Zr1401     Zr  0.65562228  0.93838517  0.90870122     2.10000
Zr1402     Zr  0.68294606  0.91307932  0.94302907     1.78800
O1403       O  0.65228090  0.95206860  0.88551591    -0.93800
O1404       O  0.68899189  0.88999370  0.96434032    -0.41600
O1405       O  0.66337248  0.89834752  0.92228782    -0.78200
O1406       O  0.63841616  0.88946000  0.94567081    -0.96900
O1407       O  0.58339057  0.90759578  0.93523343    -0.90200
O1408       O  0.60999623  0.91770604  0.91080893    -0.93100
C1409       C  0.70392404  0.97315949  0.95976356     1.00700
C1410       C  0.66628398  0.00998564  0.90771708     1.13600
C1411       C  0.60637543  0.98298591  0.96923797     1.04400
O1412       O  0.61621011  0.89781971  0.97684400    -0.95200
O1413       O  0.58218003  0.87178673  0.95802861    -0.91000
O1414       O  0.59525158  0.84581869  0.94014259    -0.84100
C1415       C  0.58271012  0.84846124  0.95130038     1.11000
O1416       O  0.55891683  0.99469581  0.91696958    -0.97200
Zr1417     Zr  0.57744721  0.94776158  0.92151540     1.88900
O1418       O  0.57148471  0.86761569  0.91579790    -0.73900
O1419       O  0.55704045  0.93155678  0.96356817    -0.53100
O1420       O  0.53471348  0.95902888  0.93390470    -0.97800
O1421       O  0.56468348  0.95735947  0.89858361    -0.55000
O1422       O  0.54652795  0.90859316  0.91634345    -0.74400
C1423       C  0.54882853  0.88198317  0.91428619     0.98000
O1424       O  0.63894522  0.83154364  0.92305889    -0.63200
O1425       O  0.70560993  0.92803290  0.90557609    -0.58000
O1426       O  0.62823361  0.86393924  0.90273358    -0.94700
O1427       O  0.64929173  0.90100444  0.89254814    -0.93100
O1428       O  0.73059567  0.91678281  0.93403899    -0.93500
O1429       O  0.70510864  0.86711433  0.94027832    -0.92200
C1430       C  0.63872286  0.87608551  0.89257784     1.16800
H1431       H  0.69483774  0.96282235  0.92755188     0.32800
H1432       H  0.64096154  0.87258328  0.95087913     0.43600
H1433       H  0.60196773  0.91238976  0.90237933     0.37100
H1434       H  0.58303390  0.97312142  0.94587273     0.33600
H1435       H  0.70888610  0.89371930  0.96684944     0.25400
H1436       H  0.54442047  0.91783020  0.95911380     0.31300
H1437       H  0.52734983  0.94057956  0.93692374     0.37200
H1438       H  0.74314629  0.91808070  0.94186016     0.31700
H1439       H  0.70614354  0.90775946  0.90319598     0.30600
H1440       H  0.67151202  0.94944531  0.88183894     0.32300
H1441       H  0.55848092  0.93903005  0.89487177     0.31200
H1442       H  0.68908041  0.85370702  0.93974603     0.35200
H1443       H  0.64361211  0.82594604  0.93223270     0.28000
H1444       H  0.64993372  0.03965336  0.95019815     0.32200
H1445       H  0.57584950  0.00694175  0.91646025     0.35000
H1446       H  0.71083684  0.93792930  0.89732067     0.27700
H1447       H  0.62337251  0.81876921  0.92038525     0.40500
H1448       H  0.59818182  0.89718376  0.98180855     0.30600
H1449       H  0.67768552  0.90150042  0.97057997     0.38200
H1450       H  0.58287008  0.96137396  0.89411669     0.30100
H1451       H  0.55684542  0.92579502  0.97297189     0.30100
H1452       H  0.62120317  0.03970971  0.94241330     0.30400
Zr1453     Zr  0.24625025  0.38641840  0.80295782     2.17500
O1454       O  0.29762308  0.38649348  0.80095186    -0.52000
O1455       O  0.24596040  0.42969065  0.78939890    -0.75200
O1456       O  0.26152252  0.36148498  0.78254472    -0.82000
O1457       O  0.24977903  0.40663451  0.84078457    -0.83700
O1458       O  0.21998590  0.36251303  0.77217938    -0.79300
O1459       O  0.27540528  0.40780742  0.82170209    -0.91000
O1460       O  0.20133070  0.44722538  0.78969115    -0.76900
O1461       O  0.20287659  0.39001911  0.79051686    -0.86400
O1462       O  0.21386953  0.41310334  0.81612272    -0.86100
O1463       O  0.22783606  0.33864172  0.79909133    -0.72900
O1464       O  0.23844143  0.35984420  0.82295966    -0.85000
Zr1465     Zr  0.14651489  0.34453213  0.81892496     2.26400
Zr1466     Zr  0.18408456  0.34318815  0.78658000     2.06300
Zr1467     Zr  0.20468001  0.38615728  0.83573534     2.10000
Zr1468     Zr  0.17176280  0.41779223  0.80346419     1.78800
O1469       O  0.22678471  0.37176862  0.85639816    -0.93800
O1470       O  0.14335309  0.42784169  0.78393513    -0.41600
O1471       O  0.16212583  0.39193221  0.82335626    -0.78200
O1472       O  0.15229524  0.37171346  0.79914839    -0.96900
O1473       O  0.17818511  0.31662799  0.80625394    -0.90200
O1474       O  0.18848500  0.33948330  0.83168114    -0.93100
C1475       C  0.22714690  0.44785602  0.78584066     1.00700
C1476       C  0.27220226  0.41266061  0.83435476     1.13600
C1477       C  0.24558838  0.35421826  0.77274917     1.04400
O1478       O  0.16156184  0.35417842  0.76555547    -0.95200
O1479       O  0.13691440  0.31960361  0.78392711    -0.91000
O1480       O  0.11317287  0.32541260  0.80324122    -0.84100
C1481       C  0.11461718  0.31675811  0.79127475     1.11000
O1482       O  0.27063210  0.30157274  0.82087044    -0.97200
Zr1483     Zr  0.22061355  0.31320267  0.81892361     1.88900
O1484       O  0.14313578  0.29514870  0.82491435    -0.73900
O1485       O  0.19834436  0.29849074  0.77661989    -0.53100
O1486       O  0.23624656  0.27379311  0.80526983    -0.97800
O1487       O  0.23157218  0.30037996  0.84170955    -0.55000
O1488       O  0.18733877  0.27649948  0.82465621    -0.74400
C1489       C  0.16054881  0.27465293  0.82644574     0.98000
O1490       O  0.09814484  0.35868008  0.82403747    -0.63200
O1491       O  0.19005222  0.43163137  0.84471849    -0.58000
O1492       O  0.13493500  0.34735721  0.84192587    -0.94700
O1493       O  0.16932842  0.37286633  0.85209157    -0.93100
O1494       O  0.17792327  0.46338290  0.81431325    -0.93500
O1495       O  0.12600504  0.43787028  0.80928719    -0.92200
C1496       C  0.14626308  0.35851879  0.85216370     1.16800
H1497       H  0.22179573  0.43129660  0.81828385     0.32800
H1498       H  0.13448528  0.37373510  0.79456945     0.43600
H1499       H  0.18523764  0.32918275  0.83976132     0.37100
H1500       H  0.24088477  0.32643980  0.79451982     0.33600
H1501       H  0.14567065  0.44835679  0.78243988     0.25400
H1502       H  0.21820888  0.29551145  0.77934011     0.31300
H1503       H  0.21863324  0.26569492  0.80157121     0.37200
H1504       H  0.16719263  0.47694490  0.80882771     0.31700
H1505       H  0.18246246  0.44213010  0.83707171     0.30600
H1506       H  0.22147998  0.38661271  0.86284548     0.32300
H1507       H  0.24745753  0.31281633  0.84432582     0.31200
H1508       H  0.12593794  0.43859108  0.81907563     0.35200
H1509       H  0.09097449  0.36791048  0.81592390     0.28000
H1510       H  0.30163065  0.39361831  0.79194594     0.32200
H1511       H  0.28063656  0.31943875  0.81891433     0.35000
H1512       H  0.17320063  0.42755458  0.85019608     0.27700
H1513       H  0.08725361  0.34088901  0.82474110     0.40500
H1514       H  0.16324381  0.33661588  0.76028956     0.30600
H1515       H  0.15378156  0.41884894  0.77655653     0.38200
H1516       H  0.23986754  0.28123485  0.84117773     0.30100
H1517       H  0.18754521  0.28401555  0.78154086     0.30100
H1518       H  0.30307503  0.36632796  0.80071662     0.30400
Zr1519     Zr  0.39324645  0.54201094  0.94204433     2.17500
O1520       O  0.39183786  0.49075031  0.94377763    -0.52000
O1521       O  0.35201178  0.54083073  0.95694179    -0.75200
O1522       O  0.42129260  0.52597009  0.96136775    -0.82000
O1523       O  0.36459060  0.54306656  0.90546340    -0.83700
O1524       O  0.42472070  0.56588147  0.97334159    -0.79300
O1525       O  0.37248812  0.51354960  0.92280924    -0.91000
O1526       O  0.33086901  0.58385197  0.95665507    -0.76900
O1527       O  0.39192250  0.58375229  0.95565338    -0.86400
O1528       O  0.36350570  0.57540574  0.93114812    -0.86100
O1529       O  0.44162188  0.55973533  0.94455480    -0.72900
O1530       O  0.41592103  0.55232087  0.92127433    -0.85000
Zr1531     Zr  0.43176154  0.64297569  0.92650079     2.26400
Zr1532     Zr  0.43940945  0.60221653  0.95796970     2.06300
Zr1533     Zr  0.38662974  0.58704538  0.91071250     2.10000
Zr1534     Zr  0.36164803  0.61617977  0.94490622     1.78800
O1535       O  0.39193272  0.56779616  0.88851550    -0.93800
O1536       O  0.35534333  0.63402273  0.96735720    -0.41600
O1537       O  0.38343943  0.62823456  0.92417173    -0.78200
O1538       O  0.40864274  0.63504939  0.94728190    -0.96900
O1539       O  0.46193203  0.61059887  0.93745587    -0.90200
O1540       O  0.43447868  0.60208931  0.91287084    -0.93100
C1541       C  0.33244815  0.55815974  0.96051945     1.00700
C1542       C  0.36317899  0.51881660  0.91086935     1.13600
C1543       C  0.43037570  0.53978263  0.97155827     1.04400
O1544       O  0.43548824  0.62456216  0.97959068    -0.95200
O1545       O  0.46490372  0.64853596  0.96015638    -0.91000
O1546       O  0.45423660  0.67435897  0.94192743    -0.84100
C1547       C  0.46599251  0.67157131  0.95323776     1.11000
O1548       O  0.47407042  0.51969121  0.92066874    -0.97200
Zr1549     Zr  0.46340802  0.56942269  0.92403237     1.88900
O1550       O  0.48053649  0.64805314  0.91925467    -0.73900
O1551       O  0.48508593  0.58269623  0.96431469    -0.53100
O1552       O  0.50420001  0.55297259  0.93657761    -0.97800
O1553       O  0.47679067  0.55864780  0.90129338    -0.55000
O1554       O  0.49950167  0.60408618  0.91921027    -0.74400
C1555       C  0.50129021  0.63089354  0.91769727     0.98000
O1556       O  0.41526708  0.69119543  0.92327620    -0.63200
O1557       O  0.33965742  0.60518715  0.90579049    -0.58000
O1558       O  0.42462799  0.65586015  0.90380120    -0.94700
O1559       O  0.39805661  0.62190962  0.89391509    -0.93100
O1560       O  0.31673747  0.62020026  0.93322916    -0.93500
O1561       O  0.34291142  0.66403541  0.94558879    -0.92200
C1562       C  0.41232669  0.64496550  0.89372627     1.16800
H1563       H  0.34487239  0.56771492  0.92964204     0.32800
H1564       H  0.40774498  0.65241282  0.95227888     0.43600
H1565       H  0.44330689  0.60581336  0.90445560     0.37100
H1566       H  0.45458376  0.54638816  0.94840617     0.33600
H1567       H  0.36332738  0.61917718  0.97312793     0.25400
H1568       H  0.49858744  0.59846764  0.96317701     0.31300
H1569       H  0.51281095  0.57028998  0.94030758     0.37200
H1570       H  0.31991799  0.63468299  0.92634516     0.31700
H1571       H  0.33938690  0.60734738  0.89605505     0.30600
H1572       H  0.41073929  0.55865253  0.88853516     0.32300
H1573       H  0.48368874  0.57663221  0.89751800     0.31200
H1574       H  0.35515579  0.67482605  0.93947960     0.35200
H1575       H  0.40729473  0.69696362  0.93192351     0.28000
H1576       H  0.38356150  0.48690590  0.95258650     0.32200
H1577       H  0.45783373  0.50959375  0.92464153     0.35000
H1578       H  0.32673451  0.58917953  0.90752954     0.27700
H1579       H  0.43257780  0.70274008  0.92222604     0.40500
H1580       H  0.42086169  0.63929154  0.97842607     0.30600
H1581       H  0.36875225  0.64996967  0.96822994     0.38200
H1582       H  0.45868533  0.55501064  0.89668824     0.30100
H1583       H  0.48383354  0.58006563  0.97400633     0.30100
H1584       H  0.41184155  0.48478521  0.94450721     0.30400
Zr1585     Zr  0.13896850  0.48953760  0.44022130     2.17500
O1586       O  0.13737884  0.54051262  0.44336872    -0.52000
O1587       O  0.18124684  0.48958017  0.45472949    -0.75200
O1588       O  0.11295509  0.50182421  0.46096706    -0.82000
O1589       O  0.15437673  0.50033830  0.40238993    -0.83700
O1590       O  0.10329947  0.46031242  0.47141893    -0.79300
O1591       O  0.15853714  0.52206551  0.42241977    -0.91000
O1592       O  0.20434406  0.44803675  0.45194369    -0.76900
O1593       O  0.14901237  0.44592545  0.45114707    -0.86400
O1594       O  0.16781218  0.46223252  0.42551531    -0.86100
O1595       O  0.09380516  0.46594547  0.44397321    -0.72900
O1596       O  0.11104378  0.48149165  0.42048651    -0.85000
Zr1597     Zr  0.10643511  0.38862795  0.42163867     2.26400
Zr1598     Zr  0.10483512  0.42232553  0.45523043     2.06300
Zr1599     Zr  0.13966798  0.45296327  0.40616086     2.10000
Zr1600     Zr  0.17809117  0.41919154  0.43657720     1.78800
O1601       O  0.12442570  0.47784442  0.38634941    -0.93800
O1602       O  0.19367847  0.38893657  0.45464254    -0.41600
O1603       O  0.15123466  0.40989039  0.41692584    -0.78200
O1604       O  0.13457484  0.39481588  0.44112369    -0.96900
O1605       O  0.07721259  0.41548674  0.43599209    -0.90200
O1606       O  0.09521679  0.43124380  0.41026245    -0.93100
C1607       C  0.20151887  0.47224797  0.45741655     1.00700
C1608       C  0.16128893  0.52135734  0.40956233     1.13600
C1609       C  0.10269717  0.48740690  0.47076807     1.04400
O1610       O  0.13394470  0.39845327  0.47162258    -0.95200
O1611       O  0.08021326  0.37559515  0.45573547    -0.91000
O1612       O  0.08928403  0.35264538  0.43643291    -0.84100
C1613       C  0.07878848  0.35361406  0.44810683     1.11000
O1614       O  0.05223929  0.50726307  0.42362606    -0.97200
Zr1615     Zr  0.06685678  0.45802818  0.42462715     1.88900
O1616       O  0.05728997  0.37919962  0.41683699    -0.73900
O1617       O  0.06450607  0.42597221  0.47014675    -0.53100
O1618       O  0.02716738  0.46998807  0.43892444    -0.97800
O1619       O  0.04489039  0.46710234  0.40318157    -0.55000
O1620       O  0.03369238  0.41931939  0.42225359    -0.74400
C1621       C  0.03452652  0.39326372  0.41879547     0.98000
O1622       O  0.12794653  0.34298213  0.41692178    -0.63200
O1623       O  0.18535281  0.44249401  0.39614519    -0.58000
O1624       O  0.10792866  0.38160822  0.39809970    -0.94700
O1625       O  0.12780217  0.42011847  0.38853177    -0.93100
O1626       O  0.22228240  0.43024806  0.42531647    -0.93500
O1627       O  0.20271863  0.37832458  0.42747844    -0.92200
C1628       C  0.11597831  0.39575173  0.38799369     1.16800
H1629       H  0.18499620  0.47215000  0.42331904     0.32800
H1630       H  0.13846506  0.37671023  0.44510716     0.43600
H1631       H  0.08450526  0.42801842  0.40230530     0.37100
H1632       H  0.08038397  0.47677387  0.44899641     0.33600
H1633       H  0.18771351  0.36959728  0.45219664     0.25400
H1634       H  0.04788216  0.42738317  0.46422860     0.31300
H1635       H  0.02320680  0.45252474  0.44394895     0.37200
H1636       H  0.23718592  0.42721193  0.43204925     0.31700
H1637       H  0.19749499  0.45878518  0.39846904     0.30600
H1638       H  0.10431941  0.47254182  0.38521068     0.32300
H1639       H  0.02596002  0.47470695  0.40537548     0.31200
H1640       H  0.19148552  0.37243177  0.41968736     0.35200
H1641       H  0.11563298  0.33399798  0.41020254     0.28000
H1642       H  0.14727270  0.54394509  0.45185601     0.32200
H1643       H  0.06722078  0.51687243  0.41848653     0.35000
H1644       H  0.19313180  0.42659432  0.40132662     0.27700
H1645       H  0.14564771  0.34750044  0.41214413     0.40500
H1646       H  0.14735419  0.41307290  0.47474452     0.30600
H1647       H  0.21456620  0.38865172  0.45393672     0.38200
H1648       H  0.04080384  0.44833473  0.39931253     0.30100
H1649       H  0.06266747  0.40731565  0.47443728     0.30100
H1650       H  0.11730645  0.54503540  0.44516308     0.30400
Zr1651     Zr  0.29817519  0.63534203  0.30344581     2.17500
O1652       O  0.24696569  0.63327809  0.30093359    -0.52000
O1653       O  0.29982357  0.59367639  0.28894467    -0.75200
O1654       O  0.28431789  0.66081266  0.28281533    -0.82000
O1655       O  0.29451475  0.61123665  0.34083920    -0.83700
O1656       O  0.32603248  0.66244774  0.27222306    -0.79300
O1657       O  0.26829369  0.61385968  0.32195693    -0.91000
O1658       O  0.34433691  0.57591565  0.28977218    -0.76900
O1659       O  0.34211353  0.63136816  0.29165861    -0.86400
O1660       O  0.33006044  0.60846341  0.31679365    -0.86100
O1661       O  0.31649347  0.68299518  0.29994634    -0.72900
O1662       O  0.30502548  0.66193761  0.32352921    -0.85000
Zr1663     Zr  0.39747860  0.67642044  0.32114845     2.26400
Zr1664     Zr  0.36098969  0.67804482  0.28813886     2.06300
Zr1665     Zr  0.33789636  0.63527655  0.33667068     2.10000
Zr1666     Zr  0.37304152  0.60389610  0.30475639     1.78800
O1667       O  0.31178439  0.65130278  0.35605540    -0.93800
O1668       O  0.40288311  0.59775277  0.28533133    -0.41600
O1669       O  0.38128789  0.62924949  0.32499550    -0.78200
O1670       O  0.39247241  0.65000817  0.30111228    -0.96900
O1671       O  0.36671078  0.70405834  0.30798300    -0.90200
O1672       O  0.35456521  0.68198965  0.33312557    -0.93100
C1673       C  0.31899232  0.57606950  0.28522118     1.00700
C1674       C  0.27177891  0.60681768  0.33436730     1.13600
C1675       C  0.29974678  0.66849481  0.27286184     1.04400
O1676       O  0.38656866  0.66338599  0.26839225    -0.95200
O1677       O  0.40678547  0.70396174  0.28636682    -0.91000
O1678       O  0.42956910  0.69923329  0.30605096    -0.84100
C1679       C  0.42832240  0.70796861  0.29407917     1.11000
O1680       O  0.27499762  0.72521762  0.32055993    -0.97200
Zr1681     Zr  0.32360406  0.70842010  0.31979619     1.88900
O1682       O  0.40167729  0.72533398  0.32761871    -0.73900
O1683       O  0.34760880  0.72265160  0.27795116    -0.53100
O1684       O  0.31541849  0.74739523  0.30458976    -0.97800
O1685       O  0.30575869  0.72272543  0.34140514    -0.55000
O1686       O  0.35750835  0.74380068  0.32632114    -0.74400
C1687       C  0.38410442  0.74582838  0.32854595     0.98000
O1688       O  0.44573646  0.65990492  0.32461868    -0.63200
O1689       O  0.35251398  0.58988345  0.34560651    -0.58000
O1690       O  0.40675887  0.67273787  0.34449315    -0.94700
O1691       O  0.37071030  0.64875618  0.35417580    -0.93100
O1692       O  0.37072679  0.55869286  0.31616311    -0.93500
O1693       O  0.41861115  0.58229756  0.30960813    -0.92200
C1694       C  0.39400356  0.66270801  0.35463735     1.16800
H1695       H  0.32227196  0.59013143  0.31874668     0.32800
H1696       H  0.41056650  0.64836754  0.29675223     0.43600
H1697       H  0.35712718  0.69228036  0.34127429     0.37100
H1698       H  0.30382763  0.69535483  0.29526057     0.33600
H1699       H  0.40101200  0.57756264  0.28295576     0.25400
H1700       H  0.35050906  0.71966429  0.26835777     0.31300
H1701       H  0.33454315  0.75367934  0.30190122     0.37200
H1702       H  0.36961385  0.54440032  0.30902509     0.31700
H1703       H  0.37212196  0.58718207  0.34242445     0.30600
H1704       H  0.31875539  0.63950792  0.36344099     0.32300
H1705       H  0.32257682  0.72881113  0.34649974     0.31200
H1706       H  0.42288752  0.58796916  0.31882511     0.35200
H1707       H  0.44361394  0.64214631  0.32966381     0.28000
H1708       H  0.24361888  0.62844038  0.29153180     0.32200
H1709       H  0.26577840  0.71643954  0.31278054     0.35000
H1710       H  0.35447370  0.59311229  0.35523945     0.27700
H1711       H  0.45227925  0.65363240  0.31578572     0.40500
H1712       H  0.38652154  0.68020249  0.26259869     0.30600
H1713       H  0.39278177  0.60787330  0.27819587     0.38200
H1714       H  0.29973568  0.70491671  0.34565805     0.30100
H1715       H  0.32685707  0.72405517  0.27899007     0.30100
H1716       H  0.24059532  0.65308516  0.30183619     0.30400
Zr1717     Zr  0.89638627  0.04361833  0.43801866     2.17500
O1718       O  0.89333679  0.99266737  0.44087377    -0.52000
O1719       O  0.85473951  0.04366326  0.45288229    -0.75200
O1720       O  0.92296008  0.02934575  0.45811003    -0.82000
O1721       O  0.88374289  0.03694872  0.39995516    -0.83700
O1722       O  0.92211158  0.07081313  0.46867344    -0.79300
O1723       O  0.87840027  0.01261492  0.41913852    -0.91000
O1724       O  0.84164937  0.08943516  0.45516776    -0.76900
O1725       O  0.89290230  0.08701629  0.45029266    -0.86400
O1726       O  0.86704220  0.07503894  0.42554194    -0.86100
O1727       O  0.94435307  0.06250338  0.44111490    -0.72900
O1728       O  0.92102379  0.05227415  0.41751312    -0.85000
Zr1729     Zr  0.93436464  0.14375587  0.42098227     2.26400
Zr1730     Zr  0.93952470  0.10621674  0.45349841     2.06300
Zr1731     Zr  0.89217129  0.08525123  0.40549606     2.10000
Zr1732     Zr  0.86333185  0.11758802  0.43807741     1.78800
O1733       O  0.88162458  0.06994577  0.38298662    -0.93800
O1734       O  0.85302057  0.15004670  0.45616587    -0.41600
O1735       O  0.88690190  0.12773010  0.41764267    -0.78200
O1736       O  0.90952392  0.13754082  0.44142734    -0.96900
O1737       O  0.96368128  0.11289642  0.43332291    -0.90200
O1738       O  0.93952207  0.10152246  0.40832820    -0.93100
C1739       C  0.84041921  0.06343141  0.45857976     1.00700
C1740       C  0.87718419  0.01458292  0.40625617     1.13600
C1741       C  0.92972618  0.04501427  0.46808547     1.04400
O1742       O  0.92997785  0.12949218  0.47450609    -0.95200
O1743       O  0.96337593  0.15306104  0.45532082    -0.91000
O1744       O  0.95491782  0.17705558  0.43627538    -0.84100
C1745       C  0.96515296  0.17537239  0.44798089     1.11000
O1746       O  0.97885870  0.02056873  0.41998482    -0.97200
Zr1747     Zr  0.96784028  0.07075524  0.42076531     1.88900
O1748       O  0.98341369  0.14991955  0.41547051    -0.73900
O1749       O  0.98541854  0.09200480  0.46224848    -0.53100
O1750       O  0.01093563  0.05669423  0.43218084    -0.97800
O1751       O  0.98030075  0.05978635  0.39793734    -0.55000
O1752       O  0.00355261  0.10646374  0.41622614    -0.74400
C1753       C  0.00474017  0.13337058  0.41469086     0.98000
O1754       O  0.91451237  0.19004590  0.41613680    -0.63200
O1755       O  0.84384837  0.10263050  0.40374169    -0.58000
O1756       O  0.93287859  0.15316845  0.39764651    -0.94700
O1757       O  0.90775605  0.11747356  0.38817456    -0.93100
O1758       O  0.81602041  0.10881037  0.42943971    -0.93500
O1759       O  0.84121865  0.16165938  0.43125776    -0.92200
C1760       C  0.92225472  0.14038926  0.38763308     1.16800
H1761       H  0.84884115  0.06647215  0.42382971     0.32800
H1762       H  0.90769122  0.15532651  0.44604397     0.43600
H1763       H  0.94982179  0.10406242  0.40019096     0.37100
H1764       H  0.95719816  0.04982560  0.44552959     0.33600
H1765       H  0.83226250  0.14890339  0.45735768     0.25400
H1766       H  0.98460760  0.07124687  0.46311578     0.31300
H1767       H  0.02526282  0.05476042  0.42509161     0.37200
H1768       H  0.80323079  0.11283319  0.43696043     0.31700
H1769       H  0.84421134  0.11598700  0.39622636     0.30600
H1770       H  0.86501500  0.08115554  0.38018686     0.32300
H1771       H  0.96856852  0.04319890  0.39560048     0.31200
H1772       H  0.83965259  0.16031263  0.42151056     0.35200
H1773       H  0.90149906  0.19391233  0.42359466     0.28000
H1774       H  0.88706781  0.98986780  0.45012217     0.32200
H1775       H  0.96182476  0.01118227  0.42359418     0.35000
H1776       H  0.83274687  0.08631291  0.40049140     0.27700
H1777       H  0.93021547  0.20364254  0.41729992     0.40500
H1778       H  0.94564772  0.12346569  0.48035181     0.30600
H1779       H  0.86091881  0.14082261  0.46412934     0.38200
H1780       H  0.99986738  0.05243428  0.39841291     0.30100
H1781       H  0.99877196  0.09525584  0.45486726     0.30100
H1782       H  0.91316898  0.98599246  0.44069936     0.30400
Zr1783     Zr  0.73770676  0.88673957  0.30469833     2.17500
O1784       O  0.78909156  0.88675859  0.30279425    -0.52000
O1785       O  0.74007073  0.92878447  0.29021217    -0.75200
O1786       O  0.75365169  0.85869545  0.28534054    -0.82000
O1787       O  0.74297942  0.90461677  0.34236050    -0.83700
O1788       O  0.71435638  0.84644376  0.27353554    -0.79300
O1789       O  0.76914838  0.90383728  0.32351463    -0.91000
O1790       O  0.69772146  0.95137290  0.29056757    -0.76900
O1791       O  0.69570396  0.89352199  0.29171786    -0.86400
O1792       O  0.70740956  0.91741494  0.31699858    -0.86100
O1793       O  0.71597883  0.84044534  0.30155158    -0.72900
O1794       O  0.72694703  0.86222676  0.32497471    -0.85000
Zr1795     Zr  0.63435596  0.85492929  0.32051882     2.26400
Zr1796     Zr  0.67396651  0.84798146  0.28840617     2.06300
Zr1797     Zr  0.69544372  0.89268162  0.33685730     2.10000
Zr1798     Zr  0.66580904  0.92418368  0.30410940     1.78800
O1799       O  0.71137453  0.87880543  0.35882973    -0.93800
O1800       O  0.63848928  0.93521044  0.28435856    -0.41600
O1801       O  0.65366175  0.90091569  0.32430830    -0.78200
O1802       O  0.64343343  0.87939970  0.30025727    -0.96900
O1803       O  0.66413441  0.82383764  0.30842055    -0.90200
O1804       O  0.67534649  0.84718574  0.33367326    -0.93100
C1805       C  0.72327982  0.94880793  0.28656498     1.00700
C1806       C  0.76630144  0.90786310  0.33622334     1.13600
C1807       C  0.74123872  0.84695420  0.27533068     1.04400
O1808       O  0.65565020  0.86869921  0.26813944    -0.95200
O1809       O  0.62663067  0.82541072  0.28588124    -0.91000
O1810       O  0.60199402  0.83474672  0.30467194    -0.84100
C1811       C  0.60392620  0.82427909  0.29302260     1.11000
O1812       O  0.75416511  0.80133967  0.32244430    -0.97200
Zr1813     Zr  0.70515433  0.81700822  0.32159049     1.88900
O1814       O  0.62573780  0.80739203  0.32776000    -0.73900
O1815       O  0.67777516  0.80097268  0.27869794    -0.53100
O1816       O  0.71730572  0.77346220  0.31008640    -0.97800
O1817       O  0.71485959  0.80501655  0.34457017    -0.55000
O1818       O  0.66753424  0.78395442  0.32676276    -0.74400
C1819       C  0.64077497  0.78508954  0.32890174     0.98000
O1820       O  0.58741380  0.87452165  0.32456186    -0.63200
O1821       O  0.68823445  0.94149244  0.34358926    -0.58000
O1822       O  0.62322079  0.86047435  0.34359160    -0.94700
O1823       O  0.65841837  0.88643458  0.35301628    -0.93100
O1824       O  0.67136369  0.96848638  0.31610111    -0.93500
O1825       O  0.62098464  0.94764298  0.30865167    -0.92200
C1826       C  0.63515378  0.87263517  0.35344922     1.16800
H1827       H  0.71677155  0.93509045  0.31891332     0.32800
H1828       H  0.62602941  0.88223873  0.29541861     0.43600
H1829       H  0.67105829  0.83805814  0.34195352     0.37100
H1830       H  0.72810082  0.82671202  0.29743210     0.33600
H1831       H  0.63964885  0.95599134  0.28350937     0.25400
H1832       H  0.67544687  0.80386060  0.26906419     0.31300
H1833       H  0.71148756  0.77657379  0.30080853     0.37200
H1834       H  0.66858814  0.98335402  0.30935974     0.31700
H1835       H  0.66762051  0.94456988  0.34266979     0.30600
H1836       H  0.71143683  0.89641882  0.36411861     0.32300
H1837       H  0.73238826  0.81541853  0.34680380     0.31200
H1838       H  0.61288330  0.93739766  0.31628428     0.35200
H1839       H  0.58546390  0.88995630  0.31804708     0.28000
H1840       H  0.79312986  0.89494188  0.29399314     0.32200
H1841       H  0.76529256  0.81796607  0.31961155     0.35000
H1842       H  0.69157040  0.94150614  0.35325579     0.27700
H1843       H  0.57359585  0.86004819  0.32169918     0.40500
H1844       H  0.65381796  0.85257928  0.26195121     0.30600
H1845       H  0.65005367  0.92790841  0.27694670     0.38200
H1846       H  0.72056938  0.78492437  0.34433264     0.30100
H1847       H  0.69782455  0.79545807  0.27977475     0.30100
H1848       H  0.79459942  0.86666067  0.30205559     0.30400
Zr1849     Zr  0.40143569  0.99545704  0.44114273     2.17500
O1850       O  0.40533332  0.04606115  0.44513369    -0.52000
O1851       O  0.36182843  0.00380653  0.45618532    -0.75200
O1852       O  0.38140695  0.02458643  0.42211180    -0.82000
O1853       O  0.43723784  0.97217995  0.47208748    -0.83700
O1854       O  0.36846632  0.99466868  0.40555931    -0.79300
O1855       O  0.43911145  0.00787182  0.45735187    -0.91000
O1856       O  0.33481841  0.96413432  0.45590240    -0.76900
O1857       O  0.36838320  0.96583469  0.42987839    -0.86400
O1858       O  0.39271966  0.95531492  0.45528973    -0.86100
O1859       O  0.42392109  0.98209593  0.42069958    -0.72900
O1860       O  0.44530458  0.97056872  0.44473602    -0.85000
Zr1861     Zr  0.42604002  0.88914402  0.42725200     2.26400
Zr1862     Zr  0.39133610  0.95065460  0.40995172     2.06300
Zr1863     Zr  0.43621649  0.92999930  0.45858211     2.10000
Zr1864     Zr  0.35926778  0.92682043  0.44398010     1.78800
O1865       O  0.48206192  0.93509318  0.46934071    -0.93800
O1866       O  0.31392677  0.93077973  0.43263433    -0.41600
O1867       O  0.40237853  0.90076215  0.44754403    -0.78200
O1868       O  0.38090755  0.91116023  0.42376307    -0.96900
O1869       O  0.43562091  0.92830049  0.41330566    -0.90200
O1870       O  0.45892017  0.91849325  0.43854089    -0.93100
C1871       C  0.34006755  0.98944466  0.45971063     1.00700
C1872       C  0.44641490  0.99633100  0.46844398     1.13600
C1873       C  0.36950153  0.01925061  0.41072022     1.04400
O1874       O  0.34690966  0.93554930  0.39998419    -0.95200
O1875       O  0.40114718  0.91435003  0.39367606    -0.91000
O1876       O  0.42030465  0.87684351  0.40431648    -0.84100
C1877       C  0.41166765  0.88941597  0.39387044     1.11000
O1878       O  0.48582472  0.00585751  0.42217997    -0.97200
Zr1879     Zr  0.46771926  0.95799482  0.42462882     1.88900
O1880       O  0.47317869  0.87778623  0.41965376    -0.73900
O1881       O  0.40789985  0.97401441  0.38994338    -0.53100
O1882       O  0.48083707  0.96630743  0.40166791    -0.97800
O1883       O  0.51130796  0.96413717  0.43723396    -0.55000
O1884       O  0.49774851  0.91906209  0.41880503    -0.74400
C1885       C  0.49570343  0.89222221  0.41769225     0.98000
O1886       O  0.40421821  0.84289943  0.42431478    -0.63200
O1887       O  0.41498272  0.91233446  0.47888767    -0.58000
O1888       O  0.44569237  0.85641424  0.44308083    -0.94700
O1889       O  0.45875540  0.88248389  0.46094845    -0.93100
O1890       O  0.35026502  0.90492576  0.46535389    -0.93500
O1891       O  0.33014837  0.88461799  0.44212375    -0.92200
C1892       C  0.45825618  0.85913721  0.45424213     1.16800
H1893       H  0.38607740  0.96056700  0.46396989     0.32800
H1894       H  0.36839483  0.89831485  0.41920222     0.43600
H1895       H  0.47628982  0.90894817  0.44073411     0.37100
H1896       H  0.42741953  0.99839981  0.41524362     0.33600
H1897       H  0.30053110  0.93783329  0.43940060     0.25400
H1898       H  0.42440319  0.96284873  0.38695660     0.31300
H1899       H  0.47796790  0.94796598  0.39715183     0.37200
H1900       H  0.35131735  0.92055396  0.47184796     0.31700
H1901       H  0.41524411  0.89153854  0.47795304     0.30600
H1902       H  0.48089840  0.92312635  0.47733748     0.32300
H1903       H  0.50725232  0.97940267  0.44365994     0.31200
H1904       H  0.34375232  0.86877091  0.44249652     0.35200
H1905       H  0.39889471  0.83669453  0.43331762     0.28000
H1906       H  0.38584190  0.05348514  0.44429633     0.32200
H1907       H  0.47416355  0.01733461  0.42828872     0.35000
H1908       H  0.42919116  0.91639244  0.48583381     0.27700
H1909       H  0.38590243  0.84673505  0.41992482     0.40500
H1910       H  0.33414550  0.95202027  0.40070472     0.30600
H1911       H  0.31618091  0.94671369  0.42641237     0.38200
H1912       H  0.52511260  0.97237173  0.43096947     0.30100
H1913       H  0.39306649  0.97015708  0.38326066     0.30100
H1914       H  0.41559061  0.05366796  0.43738496     0.30400
Zr1915     Zr  0.24456059  0.14749432  0.30496623     2.17500
O1916       O  0.29383462  0.14691059  0.29791154    -0.52000
O1917       O  0.24697282  0.10477213  0.29132327    -0.75200
O1918       O  0.27592489  0.13017185  0.32370391    -0.82000
O1919       O  0.21913353  0.18895000  0.27490136    -0.83700
O1920       O  0.24670146  0.11563555  0.34014624    -0.79300
O1921       O  0.25766843  0.18346238  0.28810566    -0.91000
O1922       O  0.20547321  0.08092348  0.29325110    -0.76900
O1923       O  0.21487820  0.11815623  0.31810946    -0.86400
O1924       O  0.20154522  0.13989606  0.29251258    -0.86100
O1925       O  0.23679597  0.17340794  0.32519301    -0.72900
O1926       O  0.22134024  0.19169386  0.30108512    -0.85000
Zr1927     Zr  0.14357017  0.18198832  0.32233672     2.26400
Zr1928     Zr  0.20538497  0.14429562  0.33792664     2.06300
Zr1929     Zr  0.17810177  0.18415139  0.28904894     2.10000
Zr1930     Zr  0.17269557  0.11032910  0.30582325     1.78800
O1931       O  0.17747296  0.22495738  0.27444427    -0.93800
O1932       O  0.17568075  0.06653304  0.31832098    -0.41600
O1933       O  0.14903539  0.15474196  0.30240666    -0.78200
O1934       O  0.16262888  0.13560951  0.32601323    -0.96900
O1935       O  0.18613674  0.18988618  0.33421167    -0.90200
O1936       O  0.17241408  0.21079157  0.30864019    -0.93100
C1937       C  0.23058852  0.08386813  0.28859772     1.00700
C1938       C  0.24522112  0.19336749  0.27766859     1.13600
C1939       C  0.27119936  0.11783608  0.33500371     1.04400
O1940       O  0.18989859  0.10170144  0.34925881    -0.95200
O1941       O  0.17376423  0.15864355  0.35562445    -0.91000
O1942       O  0.13759082  0.18244509  0.34600912    -0.84100
C1943       C  0.15072022  0.17291884  0.35615335     1.11000
O1944       O  0.26432772  0.23284567  0.31879298    -0.97200
Zr1945     Zr  0.21514484  0.21824097  0.32057239     1.88900
O1946       O  0.13689117  0.23168392  0.32741462    -0.73900
O1947       O  0.23344897  0.16156937  0.35653137    -0.53100
O1948       O  0.23220691  0.23814055  0.34130160    -0.97800
O1949       O  0.22245236  0.25583818  0.30450427    -0.55000
O1950       O  0.18031438  0.25218109  0.32764367    -0.74400
C1951       C  0.15334405  0.25305429  0.32882472     0.98000
O1952       O  0.09725678  0.16371014  0.32861061    -0.63200
O1953       O  0.15856135  0.15589981  0.27109661    -0.58000
O1954       O  0.10810253  0.19996779  0.30745675    -0.94700
O1955       O  0.13160789  0.20921887  0.28834483    -0.93100
O1956       O  0.14764761  0.09970178  0.28532810    -0.93500
O1957       O  0.12684311  0.08819244  0.30941550    -0.92200
C1958       C  0.10957551  0.21096320  0.29592264     1.16800
H1959       H  0.20503705  0.13192512  0.28388092     0.32800
H1960       H  0.14979788  0.12475028  0.33140011     0.43600
H1961       H  0.16384550  0.22849762  0.30622254     0.37100
H1962       H  0.25428970  0.17663937  0.32989483     0.33600
H1963       H  0.17133911  0.05151089  0.31180469     0.25400
H1964       H  0.23130097  0.14698926  0.36345972     0.31300
H1965       H  0.23556692  0.22157522  0.34703668     0.37200
H1966       H  0.16250670  0.09820355  0.27846887     0.31700
H1967       H  0.14543151  0.16876007  0.26644084     0.30600
H1968       H  0.16734361  0.21849600  0.26641720     0.32300
H1969       H  0.20733810  0.26976739  0.30629686     0.31200
H1970       H  0.11286866  0.10298863  0.30717517     0.35200
H1971       H  0.08959692  0.15504725  0.32044195     0.28000
H1972       H  0.29964651  0.12687525  0.29839898     0.32200
H1973       H  0.27284043  0.21911345  0.31256445     0.35000
H1974       H  0.17450868  0.15334726  0.26486408     0.27700
H1975       H  0.10125788  0.14743414  0.33444277     0.40500
H1976       H  0.19642347  0.08599277  0.34356158     0.30600
H1977       H  0.19607102  0.06409761  0.32022106     0.38200
H1978       H  0.21723202  0.24742248  0.29586877     0.30100
H1979       H  0.25351383  0.16035592  0.35381004     0.30100
H1980       H  0.30445624  0.15639968  0.30509572     0.30400
Zr1981     Zr  0.64178788  0.55047637  0.44219662     2.17500
O1982       O  0.64451315  0.50081264  0.44825413    -0.52000
O1983       O  0.68466399  0.55017053  0.45602876    -0.75200
O1984       O  0.66209358  0.52152091  0.42308438    -0.82000
O1985       O  0.60551903  0.57197918  0.47368357    -0.83700
O1986       O  0.66518360  0.54908004  0.40472961    -0.79300
O1987       O  0.60609242  0.53606776  0.45895740    -0.91000
O1988       O  0.70597018  0.59288180  0.45397766    -0.76900
O1989       O  0.66782526  0.58167237  0.42837898    -0.86400
O1990       O  0.64824454  0.59330695  0.45491726    -0.86100
O1991       O  0.61291318  0.55765734  0.42279402    -0.72900
O1992       O  0.59671605  0.57171021  0.44707567    -0.85000
Zr1993     Zr  0.60108106  0.65012769  0.42720671     2.26400
Zr1994     Zr  0.63856930  0.59074894  0.40946051     2.06300
Zr1995     Zr  0.60315066  0.61400957  0.45991456     2.10000
Zr1996     Zr  0.67534084  0.62338635  0.44101271     1.78800
O1997       O  0.56436460  0.60775602  0.47547363    -0.93800
O1998       O  0.71830482  0.62002610  0.42778080    -0.41600
O1999       O  0.63048293  0.64451425  0.44627537    -0.78200
O2000       O  0.64737989  0.63312583  0.42163959    -0.96900
O2001       O  0.59305102  0.60847552  0.41469047    -0.90200
O2002       O  0.57418698  0.61963256  0.44098107    -0.93100
C2003       C  0.70443794  0.56792805  0.45886775     1.00700
C2004       C  0.59781589  0.54727741  0.46999844     1.13600
C2005       C  0.66961858  0.52597699  0.41082320     1.04400
O2006       O  0.68018117  0.60600015  0.39725252    -0.95200
O2007       O  0.62126716  0.62387449  0.39306805    -0.91000
O2008       O  0.59899785  0.65943689  0.40391649    -0.84100
C2009       C  0.60713273  0.64699871  0.39334192     1.11000
O2010       O  0.55556744  0.52781750  0.43124522    -0.97200
Zr2011     Zr  0.56745361  0.57743040  0.42842402     1.88900
O2012       O  0.55147733  0.65532609  0.42205948    -0.73900
O2013       O  0.61756712  0.56533713  0.39087015    -0.53100
O2014       O  0.54980610  0.55833808  0.40762902    -0.97800
O2015       O  0.52739631  0.56968285  0.44314714    -0.55000
O2016       O  0.53268000  0.61128324  0.42098850    -0.74400
C2017       C  0.53096284  0.63820631  0.41995668     0.98000
O2018       O  0.61708045  0.69822692  0.42314303    -0.63200
O2019       O  0.63069407  0.63700851  0.47720389    -0.58000
O2020       O  0.58390382  0.68379449  0.44305061    -0.94700
O2021       O  0.57686184  0.65966075  0.46214968    -0.93100
O2022       O  0.68728026  0.65099049  0.46057165    -0.93500
O2023       O  0.69625224  0.66909091  0.43599074    -0.92200
C2024       C  0.57446379  0.68204079  0.45487137     1.16800
H2025       H  0.65685023  0.59036248  0.46345231     0.32800
H2026       H  0.65698458  0.64664241  0.41609438     0.43600
H2027       H  0.55630547  0.62771968  0.44360782     0.37100
H2028       H  0.61022287  0.54006642  0.41811213     0.33600
H2029       H  0.73378316  0.62523500  0.43391653     0.25400
H2030       H  0.63305240  0.56303971  0.38436662     0.31300
H2031       H  0.55848498  0.57030394  0.40072027     0.37200
H2032       H  0.68566716  0.63761501  0.46804126     0.31700
H2033       H  0.62902251  0.65742656  0.47529650     0.30600
H2034       H  0.55124511  0.59450475  0.47102524     0.32300
H2035       H  0.51046308  0.57358730  0.43768742     0.31200
H2036       H  0.67998342  0.68220651  0.43560189     0.35200
H2037       H  0.63241407  0.69646864  0.41652926     0.28000
H2038       H  0.66376636  0.49467254  0.44570504     0.32200
H2039       H  0.57255662  0.51939681  0.43538757     0.35000
H2040       H  0.61943083  0.63424722  0.48535180     0.27700
H2041       H  0.60133133  0.70739933  0.41833612     0.40500
H2042       H  0.69583738  0.60487056  0.40372438     0.30600
H2043       H  0.72104807  0.59958942  0.42619538     0.38200
H2044       H  0.52808754  0.58545777  0.44956331     0.30100
H2045       H  0.61371777  0.54602621  0.39412002     0.30100
H2046       H  0.63174197  0.49106028  0.44196732     0.30400
Zr2047     Zr  0.80180974  0.39769686  0.30591429     2.17500
O2048       O  0.75338156  0.39689988  0.29767763    -0.52000
O2049       O  0.80094216  0.44045084  0.29205683    -0.75200
O2050       O  0.76817017  0.41655278  0.32376044    -0.82000
O2051       O  0.83267585  0.35555837  0.27679527    -0.83700
O2052       O  0.79376475  0.42661427  0.34223972    -0.79300
O2053       O  0.79170704  0.36204543  0.28814629    -0.91000
O2054       O  0.84281619  0.46323728  0.29469281    -0.76900
O2055       O  0.82930600  0.42741074  0.32000134    -0.86400
O2056       O  0.84646357  0.40575363  0.29492673    -0.86100
O2057       O  0.80773454  0.37172572  0.32623113    -0.72900
O2058       O  0.82601364  0.35337394  0.30302956    -0.85000
Zr2059     Zr  0.90191975  0.36574384  0.32647839     2.26400
Zr2060     Zr  0.83674995  0.40141366  0.33996096     2.06300
Zr2061     Zr  0.87076742  0.36190269  0.29237501     2.10000
Zr2062     Zr  0.87300156  0.43591775  0.30913108     1.78800
O2063       O  0.87437261  0.32068770  0.27804898    -0.93800
O2064       O  0.86266870  0.47993550  0.32063150    -0.41600
O2065       O  0.89776292  0.39204219  0.30631351    -0.78200
O2066       O  0.88085870  0.41137698  0.32957432    -0.96900
O2067       O  0.85817503  0.35649691  0.33715684    -0.90200
O2068       O  0.87533988  0.33611322  0.31215500    -0.93100
C2069       C  0.81826287  0.46069609  0.28941286     1.00700
C2070       C  0.80609111  0.35150269  0.27835631     1.13600
C2071       C  0.77077949  0.42687189  0.33572589     1.04400
O2072       O  0.84455130  0.44537238  0.35196720    -0.95200
O2073       O  0.86794552  0.39277903  0.35835812    -0.91000
O2074       O  0.90479385  0.36700299  0.35039381    -0.84100
C2075       C  0.89051949  0.37827101  0.35981667     1.11000
O2076       O  0.78376816  0.30795661  0.32190221    -0.97200
Zr2077     Zr  0.83150268  0.32724255  0.32281680     1.88900
O2078       O  0.90912654  0.31733569  0.33292859    -0.73900
O2079       O  0.80907259  0.37976536  0.35758602    -0.53100
O2080       O  0.81461624  0.31033514  0.34410912    -0.97800
O2081       O  0.82655066  0.28854097  0.30703481    -0.55000
O2082       O  0.86756826  0.29396524  0.32973277    -0.74400
C2083       C  0.89391678  0.29495955  0.33279956     0.98000
O2084       O  0.94719862  0.38648957  0.33269927    -0.63200
O2085       O  0.89381844  0.39136548  0.27588492    -0.58000
O2086       O  0.93814090  0.34542727  0.31235983    -0.94700
O2087       O  0.91727672  0.33779913  0.29240986    -0.93100
O2088       O  0.90211301  0.44877722  0.29019630    -0.93500
O2089       O  0.91754936  0.45776901  0.31565372    -0.92200
C2090       C  0.93819370  0.33533499  0.30055610     1.16800
H2091       H  0.84427808  0.41324773  0.28612463     0.32800
H2092       H  0.89254169  0.42267508  0.33534870     0.43600
H2093       H  0.88487793  0.31875080  0.30998768     0.37100
H2094       H  0.78966631  0.36834257  0.33037701     0.33600
H2095       H  0.87042411  0.47737028  0.32964342     0.25400
H2096       H  0.80895269  0.39393498  0.36479578     0.31300
H2097       H  0.81163711  0.32758687  0.34944368     0.37200
H2098       H  0.89831029  0.46907746  0.28873740     0.31700
H2099       H  0.91120521  0.38092013  0.27347695     0.30600
H2100       H  0.88464720  0.32740740  0.27012563     0.32300
H2101       H  0.84478656  0.28798972  0.30223574     0.31200
H2102       H  0.93182245  0.44266586  0.31454193     0.35200
H2103       H  0.95602615  0.39217359  0.32423574     0.28000
H2104       H  0.74631058  0.41639540  0.29888097     0.32200
H2105       H  0.77170131  0.32400940  0.31920495     0.35000
H2106       H  0.88158837  0.38988794  0.26796712     0.27700
H2107       H  0.94227039  0.40457371  0.33704109     0.40500
H2108       H  0.86527617  0.44827696  0.35197892     0.30600
H2109       H  0.87509072  0.49420911  0.31647572     0.38200
H2110       H  0.81282084  0.29532539  0.30036192     0.30100
H2111       H  0.78929286  0.37916836  0.35438826     0.30100
H2112       H  0.74272826  0.38549102  0.30418142     0.30400
C2113       C  0.72378076  0.49649707  0.38679784    -0.11500
C2114       C  0.70817918  0.47645334  0.37944754     0.05700
C2115       C  0.68092848  0.46959375  0.38423250    -0.10300
C2116       C  0.66920884  0.48350185  0.39541981    -0.11900
C2117       C  0.68454746  0.50426707  0.40242629    -0.01700
C2118       C  0.71217209  0.51015087  0.39797238    -0.10800
C2119       C  0.72005576  0.46396300  0.36666589     0.05700
H2120       H  0.66799015  0.45456706  0.37888580     0.07600
H2121       H  0.64742866  0.47930949  0.39807056     0.11100
H2122       H  0.72430834  0.52671057  0.40272036     0.11300
H2123       H  0.74490533  0.50228095  0.38369545     0.07600
C2124       C  0.73601309  0.48073197  0.35787606    -0.11500
C2125       C  0.74920651  0.46907971  0.34659104    -0.10800
C2126       C  0.74708140  0.44014096  0.34349229    -0.01700
C2127       C  0.73027322  0.42345607  0.35198557    -0.11900
C2128       C  0.71668358  0.43520521  0.36325187    -0.10300
H2129       H  0.73906132  0.50295112  0.35992429     0.07600
H2130       H  0.76299341  0.48243570  0.34077204     0.11300
H2131       H  0.72935805  0.40084418  0.35047857     0.11100
H2132       H  0.70492255  0.42135509  0.36973592     0.07600
C2133       C  0.06369883  0.27417286  0.28737775    -0.11500
C2134       C  0.03636549  0.26411475  0.29033689     0.05700
C2135       C  0.03323049  0.23534300  0.29338214    -0.10300
C2136       C  0.05694988  0.21758790  0.29431330    -0.11900
C2137       C  0.08439734  0.22784850  0.29181884    -0.01700
C2138       C  0.08738191  0.25618035  0.28796140    -0.10800
C2139       C  0.01173191  0.28389915  0.29159440     0.05700
H2140       H  0.01259108  0.22695743  0.29584894     0.07600
H2141       H  0.05397990  0.19600786  0.29753602     0.11100
H2142       H  0.10824167  0.26490456  0.28628744     0.11300
H2143       H  0.06684276  0.29622355  0.28501078     0.07600
C2144       C  0.01408628  0.30836523  0.29941290    -0.11500
C2145       C  0.99043748  0.32544016  0.30194312    -0.10800
C2146       C  0.96381797  0.31898661  0.29646869    -0.01700
C2147       C  0.96165794  0.29519027  0.28816574    -0.11900
C2148       C  0.98523452  0.27764275  0.28590628    -0.10300
H2149       H  0.03403748  0.31363949  0.30406647     0.07600
H2150       H  0.99287563  0.34351627  0.30841628     0.11300
H2151       H  0.94144002  0.28942132  0.28391041     0.11100
H2152       H  0.98268769  0.25893771  0.27985351     0.07600
C2153       C  0.47901080  0.78194816  0.45832305    -0.11500
C2154       C  0.50730121  0.78368968  0.46258003     0.05700
C2155       C  0.51816514  0.81074164  0.46559376    -0.10300
C2156       C  0.50159762  0.83526616  0.46392595    -0.11900
C2157       C  0.47383920  0.83348755  0.45898158    -0.01700
C2158       C  0.46269586  0.80641436  0.45643526    -0.10800
C2159       C  0.52589249  0.75778153  0.46269287     0.05700
H2160       H  0.53978273  0.81301725  0.46895927     0.07600
H2161       H  0.51106561  0.85570903  0.46576532     0.11100
H2162       H  0.44151124  0.80421890  0.45248525     0.11300
H2163       H  0.46988906  0.76171857  0.45573726     0.07600
C2164       C  0.51571044  0.73114115  0.46680481    -0.11500
C2165       C  0.53234769  0.70653314  0.46542316    -0.10800
C2166       C  0.55941458  0.70788011  0.45969722    -0.01700
C2167       C  0.56991702  0.73461029  0.45609403    -0.11900
C2168       C  0.55357868  0.75910895  0.45764744    -0.10300
H2169       H  0.49456139  0.72921481  0.47079447     0.07600
H2170       H  0.52336576  0.68628974  0.46805554     0.11300
H2171       H  0.59051086  0.73640930  0.45147927     0.11100
H2172       H  0.56213978  0.77895270  0.45418648     0.07600
C2173       C  0.35943660  0.07768849  0.38487402    -0.11500
C2174       C  0.33253217  0.07067829  0.37965867     0.05700
C2175       C  0.31670361  0.05029817  0.38659899    -0.10300
C2176       C  0.32794010  0.03601447  0.39759705    -0.11900
C2177       C  0.35544187  0.04152704  0.40232385    -0.01700
C2178       C  0.37082855  0.06314434  0.39596863    -0.10800
C2179       C  0.32119202  0.08284037  0.36675000     0.05700
H2180       H  0.29571245  0.04459960  0.38325049     0.07600
H2181       H  0.31558591  0.01921302  0.40198915     0.11100
H2182       H  0.39238035  0.06745138  0.39897406     0.11300
H2183       H  0.37240210  0.09321750  0.37990372     0.07600
C2184       C  0.30596814  0.06549122  0.35788462    -0.11500
C2185       C  0.29266807  0.07657113  0.34656631    -0.10800
C2186       C  0.29416140  0.10545261  0.34346567    -0.01700
C2187       C  0.31051992  0.12276570  0.35190328    -0.11900
C2188       C  0.32406215  0.11160221  0.36329558    -0.10300
H2189       H  0.30352859  0.04320860  0.35990984     0.07600
H2190       H  0.27950894  0.06273333  0.34064379     0.11300
H2191       H  0.31113597  0.14532221  0.35023474     0.11100
H2192       H  0.33537976  0.12582923  0.36980445     0.07600
C2193       C  0.58691633  0.73691966  0.34462876    -0.11500
C2194       C  0.60338077  0.71269683  0.34685503     0.05700
C2195       C  0.63029939  0.71092129  0.34100411    -0.10300
C2196       C  0.64169457  0.73388842  0.33435113    -0.11900
C2197       C  0.62651616  0.75920141  0.33345146    -0.01700
C2198       C  0.59845859  0.76007205  0.33805240    -0.10800
C2199       C  0.59580659  0.69240838  0.35739679     0.05700
H2200       H  0.64379493  0.69280139  0.34255499     0.07600
H2201       H  0.66314795  0.73234341  0.33067952     0.11100
H2202       H  0.58597260  0.77914859  0.33728061     0.11300
H2203       H  0.56583389  0.73870463  0.34871974     0.07600
C2204       C  0.58394341  0.70257749  0.36922333    -0.11500
C2205       C  0.58590310  0.68681955  0.38076131    -0.10800
C2206       C  0.60000069  0.66073029  0.38072713    -0.01700
C2207       C  0.60860848  0.64900525  0.36863050    -0.11900
C2208       C  0.60616973  0.66460557  0.35701256    -0.10300
H2209       H  0.57565662  0.72379935  0.36996349     0.07600
H2210       H  0.57817206  0.69608970  0.38986956     0.11300
H2211       H  0.61865607  0.62849517  0.36822749     0.11100
H2212       H  0.61447322  0.65575572  0.34793169     0.07600
C2213       C  0.60561863  0.88883068  0.38690388    -0.11500
C2214       C  0.59263194  0.86293493  0.39007707     0.05700
C2215       C  0.59678493  0.83955557  0.38177326    -0.10300
C2216       C  0.61091762  0.84278977  0.36983211    -0.11900
C2217       C  0.62193269  0.86916196  0.36630190    -0.01700
C2218       C  0.62047514  0.89179887  0.37513483    -0.10800
C2219       C  0.57034667  0.86229581  0.40024642     0.05700
H2220       H  0.58767893  0.81921708  0.38413449     0.07600
H2221       H  0.61282338  0.82484111  0.36323406     0.11100
H2222       H  0.62934235  0.91215299  0.37257446     0.11300
H2223       H  0.60257132  0.90743785  0.39295872     0.07600
C2224       C  0.57206889  0.88035313  0.41122435    -0.11500
C2225       C  0.54758657  0.88824686  0.41782245    -0.10800
C2226       C  0.52134911  0.87755601  0.41373070    -0.01700
C2227       C  0.52010418  0.85620657  0.40420535    -0.11900
C2228       C  0.54453367  0.84869657  0.39740811    -0.10300
H2229       H  0.59183386  0.89040300  0.41390546     0.07600
H2230       H  0.54885513  0.90432085  0.42543967     0.11300
H2231       H  0.49996388  0.84763854  0.40102490     0.11100
H2232       H  0.54239218  0.83468569  0.38900339     0.07600
C2233       C  0.90645373  0.17333174  0.35511492    -0.11500
C2234       C  0.93048854  0.19051355  0.35343231     0.05700
C2235       C  0.95424812  0.18599242  0.36150082    -0.10300
C2236       C  0.95239746  0.16772607  0.37223366    -0.11900
C2237       C  0.92706946  0.15325156  0.37473927    -0.01700
C2238       C  0.90489490  0.15460485  0.36564559    -0.10800
C2239       C  0.92789165  0.21669779  0.34562461     0.05700
H2240       H  0.97333838  0.19830820  0.36020462     0.07600
H2241       H  0.97003722  0.16628490  0.37904577     0.11100
H2242       H  0.88528596  0.14340757  0.36742301     0.11300
H2243       H  0.88763429  0.17632351  0.34919436     0.07600
C2244       C  0.93813032  0.24220759  0.35095542    -0.11500
C2245       C  0.92829465  0.26791034  0.34620109    -0.10800
C2246       C  0.90774218  0.26842885  0.33624994    -0.01700
C2247       C  0.89960510  0.24325507  0.33001968    -0.11900
C2248       C  0.91001557  0.21755049  0.33453168    -0.10300
H2249       H  0.95172225  0.24246601  0.35956847     0.07600
H2250       H  0.93510092  0.28723423  0.35098560     0.11300
H2251       H  0.88442462  0.24341468  0.32199169     0.11100
H2252       H  0.90246514  0.19828125  0.32996630     0.07600
C2253       C  0.08124930  0.14021400  0.40494397    -0.11500
C2254       C  0.08306282  0.16904463  0.40181357     0.05700
C2255       C  0.06034795  0.18683349  0.40511482    -0.10300
C2256       C  0.03515842  0.17544276  0.40991751    -0.11900
C2257       C  0.03245235  0.14612348  0.41167410    -0.01700
C2258       C  0.05622027  0.12888732  0.40982601    -0.10800
C2259       C  0.10502452  0.17839063  0.39235402     0.05700
H2260       H  0.06133562  0.20924158  0.40308939     0.07600
H2261       H  0.01742150  0.18944282  0.41160483     0.11100
H2262       H  0.05503167  0.10630964  0.41135005     0.11300
H2263       H  0.09817413  0.12578030  0.40246892     0.07600
C2264       C  0.09673892  0.19462335  0.38141437    -0.11500
C2265       C  0.11292882  0.19460937  0.36995302    -0.10800
C2266       C  0.13768406  0.17831412  0.36917655    -0.01700
C2267       C  0.14803151  0.16537714  0.38068849    -0.11900
C2268       C  0.13187362  0.16561752  0.39225282    -0.10300
H2269       H  0.07629433  0.20485846  0.38109551     0.07600
H2270       H  0.10479994  0.20563073  0.36138346     0.11300
H2271       H  0.16752141  0.15339889  0.38051656     0.11100
H2272       H  0.13920038  0.15368632  0.40070828     0.07600
C2273       C  0.86528591  0.97279641  0.37437480    -0.11500
C2274       C  0.84019947  0.95766493  0.37681315     0.05700
C2275       C  0.82977003  0.95826617  0.38999399    -0.10300
C2276       C  0.84298702  0.97457993  0.40004791    -0.11900
C2277       C  0.86709443  0.99094775  0.39729566    -0.01700
C2278       C  0.87832172  0.98904739  0.38434531    -0.10800
C2279       C  0.82453535  0.94247033  0.36563768     0.05700
H2280       H  0.81043553  0.94729143  0.39246697     0.07600
H2281       H  0.83324113  0.97581545  0.40971770     0.11100
H2282       H  0.89682244  0.00129752  0.38171435     0.11300
H2283       H  0.87474954  0.97261237  0.36463432     0.07600
C2284       C  0.82525722  0.95212225  0.35233623    -0.11500
C2285       C  0.80841499  0.93954153  0.34229058    -0.10800
C2286       C  0.79024235  0.91689650  0.34519848    -0.01700
C2287       C  0.79083403  0.90629590  0.35826130    -0.11900
C2288       C  0.80758551  0.91867755  0.36821333    -0.10300
H2289       H  0.83771787  0.97043208  0.34975042     0.07600
H2290       H  0.80824939  0.94872469  0.33249561     0.11300
H2291       H  0.77717513  0.88888517  0.36097541     0.11100
H2292       H  0.80671196  0.90977460  0.37804822     0.07600
C2293       C  0.50489124  0.73166950  0.29163463    -0.11500
C2294       C  0.50294791  0.75730932  0.28478659     0.05700
C2295       C  0.47629742  0.76545366  0.27979678    -0.10300
C2296       C  0.45208826  0.74854376  0.28189743    -0.11900
C2297       C  0.45393593  0.72357873  0.28936976    -0.01700
C2298       C  0.48076705  0.71526429  0.29401278    -0.10800
C2299       C  0.52810786  0.77652737  0.28433582     0.05700
H2300       H  0.47411224  0.78524218  0.27456241     0.07600
H2301       H  0.43174778  0.75577707  0.27834292     0.11100
H2302       H  0.48297576  0.69629237  0.29987891     0.11300
H2303       H  0.52493180  0.72501543  0.29577509     0.07600
C2304       C  0.52661591  0.80329406  0.29025078    -0.11500
C2305       C  0.55113824  0.81942459  0.29223956    -0.10800
C2306       C  0.57788901  0.80958778  0.28813992    -0.01700
C2307       C  0.57918754  0.78362380  0.28139663    -0.11900
C2308       C  0.55460223  0.76710499  0.27967398    -0.10300
H2309       H  0.50668617  0.81099806  0.29410292     0.07600
H2310       H  0.54933699  0.83923637  0.29753419     0.11300
H2311       H  0.59940914  0.77523526  0.27827069     0.11100
H2312       H  0.55642090  0.74647181  0.27513554     0.07600
C2313       C  0.43104971  0.80160580  0.34354764    -0.11500
C2314       C  0.41080145  0.82216756  0.34684820     0.05700
C2315       C  0.38340974  0.81988766  0.34162505    -0.10300
C2316       C  0.37543231  0.79586277  0.33469493    -0.11900
C2317       C  0.39461655  0.77354636  0.33294972    -0.01700
C2318       C  0.42297141  0.77732186  0.33669257    -0.10800
C2319       C  0.41593886  0.84217383  0.35780129     0.05700
H2320       H  0.36725794  0.83528501  0.34396156     0.07600
H2321       H  0.35357472  0.79396735  0.33161596     0.11100
H2322       H  0.43844558  0.76081364  0.33512635     0.11300
H2323       H  0.45256179  0.80328867  0.34714207     0.07600
C2324       C  0.42985435  0.83260597  0.36921297    -0.11500
C2325       C  0.42909674  0.84838996  0.38080136    -0.10800
C2326       C  0.41431528  0.87406334  0.38125930    -0.01700
C2327       C  0.40186039  0.88452277  0.36965064    -0.11900
C2328       C  0.40274703  0.86873692  0.35800134    -0.10300
H2329       H  0.43977278  0.81203195  0.36949351     0.07600
H2330       H  0.43932351  0.83993956  0.38952330     0.11300
H2331       H  0.39063204  0.90443106  0.36966160     0.11100
H2332       H  0.39207809  0.87674774  0.34930812     0.07600
C2333       C  0.40809758  0.66348765  0.39152793    -0.11500
C2334       C  0.43549686  0.67502612  0.39182632     0.05700
C2335       C  0.44714571  0.68582121  0.38012276    -0.10300
C2336       C  0.43312161  0.68251534  0.36817981    -0.11900
C2337       C  0.40701783  0.66843565  0.36762336    -0.01700
C2338       C  0.39395818  0.66011421  0.37947976    -0.10800
C2339       C  0.45475979  0.66950961  0.40301583     0.05700
H2340       H  0.46831118  0.69453021  0.37991949     0.07600
H2341       H  0.44356146  0.68979695  0.35928717     0.11100
H2342       H  0.37342775  0.64998579  0.37940029     0.11300
H2343       H  0.39848322  0.65536803  0.40046518     0.07600
C2344       C  0.47704165  0.68825321  0.40579832    -0.11500
C2345       C  0.50143500  0.67855394  0.41205931    -0.10800
C2346       C  0.50361365  0.65011309  0.41581174    -0.01700
C2347       C  0.47985571  0.63252159  0.41461185    -0.11900
C2348       C  0.45559390  0.64216875  0.40830979    -0.10300
H2349       H  0.47666871  0.70963750  0.40204253     0.07600
H2350       H  0.51920002  0.69281121  0.41312192     0.11300
H2351       H  0.48061706  0.61068605  0.41772657     0.11100
H2352       H  0.43883079  0.62716861  0.40634392     0.07600
C2353       C  0.02321296  0.22481591  0.46041287    -0.11500
C2354       C  0.01261998  0.25145133  0.45657595     0.05700
C2355       C  0.98494702  0.25266386  0.45152035    -0.10300
C2356       C  0.96910013  0.22798430  0.44952631    -0.11900
C2357       C  0.98006685  0.20127206  0.45279749    -0.01700
C2358       C  0.00701426  0.20003940  0.45866336    -0.10800
C2359       C  0.03099967  0.27741653  0.45644168     0.05700
H2360       H  0.97611783  0.27259353  0.44832730     0.07600
H2361       H  0.94850197  0.22968328  0.44490289     0.11100
H2362       H  0.01624195  0.17981412  0.46112787     0.11300
H2363       H  0.04438713  0.22305945  0.46440323     0.07600
C2364       C  0.02034659  0.30416680  0.46008178    -0.11500
C2365       C  0.03654996  0.32887687  0.45827289    -0.10800
C2366       C  0.06360595  0.32754801  0.45253134    -0.01700
C2367       C  0.07447557  0.30077503  0.44922177    -0.11900
C2368       C  0.05861416  0.27610227  0.45130871    -0.10300
H2369       H  0.99916187  0.30604728  0.46404317     0.07600
H2370       H  0.02731361  0.34914658  0.46068598     0.11300
H2371       H  0.09508560  0.29899657  0.44462554     0.11100
H2372       H  0.06741782  0.25607299  0.44819910     0.07600
C2373       C  0.10006193  0.30936022  0.33762649    -0.11500
C2374       C  0.11816107  0.33154404  0.34131849     0.05700
C2375       C  0.14716003  0.32937145  0.33859460    -0.10300
C2376       C  0.15833534  0.30419292  0.33391692    -0.11900
C2377       C  0.14071158  0.28073538  0.33181808    -0.01700
C2378       C  0.11129079  0.28400616  0.33296654    -0.10800
C2379       C  0.10910377  0.35238077  0.35126685     0.05700
H2380       H  0.16171431  0.34599779  0.34139031     0.07600
H2381       H  0.18105049  0.30266832  0.33276460     0.11100
H2382       H  0.09709167  0.26657356  0.33097858     0.11300
H2383       H  0.07753903  0.31076352  0.33945828     0.07600
C2384       C  0.09475686  0.34239323  0.36245652    -0.11500
C2385       C  0.09565571  0.35746863  0.37420342    -0.10800
C2386       C  0.11083897  0.38288089  0.37498262    -0.01700
C2387       C  0.12208114  0.39468221  0.36339340    -0.11900
C2388       C  0.12114697  0.37949610  0.35156059    -0.10300
H2389       H  0.08542561  0.32152605  0.36260592     0.07600
H2390       H  0.08598320  0.34818639  0.38287632     0.11300
H2391       H  0.13319691  0.41465758  0.36364215     0.11100
H2392       H  0.13200722  0.38777086  0.34297339     0.07600
C2393       C  0.97896467  0.35034757  0.40180876    -0.11500
C2394       C  0.95442525  0.36444653  0.40610351     0.05700
C2395       C  0.95615514  0.38260473  0.41705009    -0.10300
C2396       C  0.98250453  0.39012008  0.42212261    -0.11900
C2397       C  0.00729369  0.37923349  0.41641624    -0.01700
C2398       C  0.00527802  0.35769335  0.40695380    -0.10800
C2399       C  0.93009671  0.36622128  0.39698562     0.05700
H2400       H  0.93746654  0.39318665  0.42075912     0.07600
H2401       H  0.98358062  0.40613628  0.42976514     0.11100
H2402       H  0.02409125  0.34867484  0.40253595     0.11300
H2403       H  0.97839713  0.33619938  0.39339125     0.07600
C2404       C  0.91962615  0.39305202  0.39353685    -0.11500
C2405       C  0.90485766  0.39678505  0.38174409    -0.10800
C2406       C  0.90072929  0.37381821  0.37325822    -0.01700
C2407       C  0.90831567  0.34662601  0.37733050    -0.11900
C2408       C  0.92253719  0.34276923  0.38925257    -0.10300
H2409       H  0.92526926  0.41162729  0.39920659     0.07600
H2410       H  0.89879087  0.41787046  0.37874805     0.11300
H2411       H  0.90448705  0.32859635  0.37096912     0.11100
H2412       H  0.92986016  0.32184090  0.39182469     0.07600
C2413       C  0.24066636  0.55931578  0.36080757    -0.11500
C2414       C  0.21774094  0.57523002  0.36572921     0.05700
C2415       C  0.20978431  0.59933746  0.35837467    -0.10300
C2416       C  0.22536593  0.60816109  0.34710486    -0.11900
C2417       C  0.24915821  0.59295414  0.34265168    -0.01700
C2418       C  0.25606380  0.56805720  0.34958793    -0.10800
C2419       C  0.20301358  0.56684345  0.37856550     0.05700
H2420       H  0.19241402  0.61233997  0.36175275     0.07600
H2421       H  0.22000359  0.62800166  0.34245201     0.11100
H2422       H  0.27465948  0.55612956  0.34677220     0.11300
H2423       H  0.24729950  0.54031763  0.36585963     0.07600
C2424       C  0.21840839  0.55517119  0.38922787    -0.11500
C2425       C  0.20473086  0.54429866  0.40055037    -0.10800
C2426       C  0.17509122  0.54437939  0.40167118    -0.01700
C2427       C  0.15973092  0.55767325  0.39142620    -0.11900
C2428       C  0.17343761  0.56904788  0.38017635    -0.10300
H2429       H  0.24118847  0.55344513  0.38862986     0.07600
H2430       H  0.21728296  0.53337606  0.40789339     0.11300
H2431       H  0.13683120  0.55722234  0.39160913     0.11100
H2432       H  0.16061724  0.57777421  0.37231379     0.07600
C2433       C  0.32222801  0.42391448  0.86352188    -0.11500
C2434       C  0.31990258  0.45325747  0.86576031     0.05700
C2435       C  0.30611640  0.46915202  0.85583243    -0.10300
C2436       C  0.29367326  0.45616228  0.84463195    -0.11900
C2437       C  0.29450271  0.42671427  0.84279922    -0.01700
C2438       C  0.30939970  0.41088446  0.85237495    -0.10800
C2439       C  0.32999982  0.46716654  0.87859812     0.05700
H2440       H  0.30406434  0.49177848  0.85693072     0.07600
H2441       H  0.28155446  0.46905073  0.83785463     0.11100
H2442       H  0.30954730  0.38807773  0.85169238     0.11300
H2443       H  0.33240601  0.41070585  0.87083184     0.07600
C2444       C  0.35559934  0.45966641  0.88498478    -0.11500
C2445       C  0.36543093  0.47442704  0.89638174    -0.10800
C2446       C  0.34975927  0.49683970  0.90195342    -0.01700
C2447       C  0.32365761  0.50332483  0.89589239    -0.11900
C2448       C  0.31397380  0.48883057  0.88455613    -0.10300
H2449       H  0.36877861  0.44327091  0.88079086     0.07600
H2450       H  0.38612397  0.46946013  0.90032273     0.11300
H2451       H  0.31124600  0.52087187  0.89957076     0.11100
H2452       H  0.29395977  0.49509872  0.88027506     0.07600
C2453       C  0.48792079  0.74849357  0.95604450    -0.11500
C2454       C  0.51585485  0.74689797  0.96073912     0.05700
C2455       C  0.52609350  0.72011188  0.96460192    -0.10300
C2456       C  0.50920585  0.69559500  0.96330999    -0.11900
C2457       C  0.48183761  0.69719465  0.95789580    -0.01700
C2458       C  0.47134590  0.72412118  0.95456424    -0.10800
C2459       C  0.53458258  0.77270163  0.96040849     0.05700
H2460       H  0.54746858  0.71802045  0.96830740     0.07600
H2461       H  0.51817587  0.67525725  0.96577032     0.11100
H2462       H  0.45049292  0.72621481  0.95023348     0.11300
H2463       H  0.47931575  0.76848275  0.95279665     0.07600
C2464       C  0.56212927  0.77107399  0.95521463    -0.11500
C2465       C  0.57817159  0.79560049  0.95298004    -0.10800
C2466       C  0.56751577  0.82261110  0.95611289    -0.01700
C2467       C  0.54066683  0.82421066  0.96204084    -0.11900
C2468       C  0.52431761  0.79963613  0.96403189    -0.10300
H2469       H  0.57073455  0.75091449  0.95216986     0.07600
H2470       H  0.59871049  0.79349734  0.94834096     0.11300
H2471       H  0.53163220  0.84458001  0.96443046     0.11100
H2472       H  0.50326659  0.80178051  0.96811353     0.07600
C2473       C  0.01158870  0.22626765  0.79022732    -0.11500
C2474       C  0.01113379  0.25231311  0.78362849     0.05700
C2475       C  0.98494473  0.26174399  0.77853336    -0.10300
C2476       C  0.95985140  0.24589532  0.78035464    -0.11900
C2477       C  0.96025733  0.22053815  0.78758184    -0.01700
C2478       C  0.98663972  0.21082830  0.79225214    -0.10800
C2479       C  0.03747416  0.27026374  0.78319705     0.05700
H2480       H  0.98378995  0.28172633  0.77339413     0.07600
H2481       H  0.93997018  0.25427301  0.77678854     0.11100
H2482       H  0.98785355  0.19154064  0.79795597     0.11300
H2483       H  0.03112334  0.21844906  0.79444233     0.07600
C2484       C  0.03668055  0.29853805  0.78742339    -0.11500
C2485       C  0.06175360  0.31414695  0.78909751    -0.10800
C2486       C  0.08845330  0.30231672  0.78628111    -0.01700
C2487       C  0.08922842  0.27458508  0.78130839    -0.11900
C2488       C  0.06410469  0.25867069  0.77992976    -0.10300
H2489       H  0.01675091  0.30808538  0.79021704     0.07600
H2490       H  0.06038169  0.33524864  0.79318498     0.11300
H2491       H  0.10937119  0.26456659  0.77934290     0.11100
H2492       H  0.06556359  0.23693488  0.77668498     0.07600
C2493       C  0.67915994  0.04554616  0.87432783    -0.11500
C2494       C  0.70110441  0.06491839  0.87683299     0.05700
C2495       C  0.70850976  0.06915652  0.89033029    -0.10300
C2496       C  0.69570718  0.05342558  0.90072411    -0.11900
C2497       C  0.67486190  0.03297850  0.89802073    -0.01700
C2498       C  0.66634984  0.03012916  0.88463417    -0.10800
C2499       C  0.71646144  0.07987368  0.86546410     0.05700
H2500       H  0.72530585  0.08369160  0.89286875     0.07600
H2501       H  0.70339515  0.05604182  0.91073692     0.11100
H2502       H  0.65038134  0.01471564  0.88199141     0.11300
H2503       H  0.67203096  0.04185645  0.86429825     0.07600
C2504       C  0.72105701  0.06677934  0.85298428    -0.11500
C2505       C  0.73700137  0.08011804  0.84282038    -0.10800
C2506       C  0.74886122  0.10713181  0.84471317    -0.01700
C2507       C  0.74334275  0.12049204  0.85695346    -0.11900
C2508       C  0.72747996  0.10730921  0.86703693    -0.10300
H2509       H  0.71343049  0.04556835  0.85123433     0.07600
H2510       H  0.74143141  0.06859049  0.83379964     0.11300
H2511       H  0.75241199  0.14105166  0.85895764     0.11100
H2512       H  0.72425974  0.11862914  0.87621684     0.07600
C2513       C  0.94633220  0.33206829  0.86337585    -0.11500
C2514       C  0.93519972  0.34372896  0.85172008     0.05700
C2515       C  0.92274974  0.37068585  0.85230546    -0.10300
C2516       C  0.91817762  0.38385796  0.86450879    -0.11900
C2517       C  0.92644891  0.37045310  0.87626660    -0.01700
C2518       C  0.94201190  0.34526170  0.87548062    -0.10800
C2519       C  0.93012977  0.32478959  0.84026139     0.05700
H2520       H  0.91467482  0.38061952  0.84344265     0.07600
H2521       H  0.90700726  0.40379116  0.86476171     0.11100
H2522       H  0.94955883  0.33475149  0.88430384     0.11300
H2523       H  0.95600865  0.31138188  0.86342702     0.07600
C2524       C  0.94832186  0.30189756  0.83773605    -0.11500
C2525       C  0.93802532  0.27765072  0.83149776    -0.10800
C2526       C  0.90957822  0.27627918  0.82753080    -0.01700
C2527       C  0.89314965  0.30093331  0.82795025    -0.11900
C2528       C  0.90329542  0.32495249  0.83428898    -0.10300
H2529       H  0.96953914  0.30158373  0.84176664     0.07600
H2530       H  0.95158884  0.25929749  0.83083761     0.11300
H2531       H  0.87145277  0.30093748  0.82451711     0.11100
H2532       H  0.88868950  0.34220610  0.83585015     0.07600
C2533       C  0.05357598  0.34279431  0.90061062    -0.11500
C2534       C  0.07366493  0.36282225  0.89652531     0.05700
C2535       C  0.06956430  0.39133585  0.89977846    -0.10300
C2536       C  0.04518768  0.39992319  0.90624637    -0.11900
C2537       C  0.02412276  0.38025675  0.90948123    -0.01700
C2538       C  0.02891691  0.35146265  0.90701927    -0.10800
C2539       C  0.09623718  0.35535093  0.88707673     0.05700
H2540       H  0.08424909  0.40743337  0.89654622     0.07600
H2541       H  0.04228428  0.42225779  0.90807482     0.11100
H2542       H  0.01323451  0.33576611  0.90961505     0.11300
H2543       H  0.05637573  0.32062278  0.89836685     0.07600
C2544       C  0.09005236  0.33735343  0.87642103    -0.11500
C2545       C  0.10753780  0.33692064  0.86537759    -0.10800
C2546       C  0.13132585  0.35467730  0.86476754    -0.01700
C2547       C  0.13923903  0.37017135  0.87599770    -0.11900
C2548       C  0.12190879  0.37031677  0.88712288    -0.10300
H2549       H  0.07048694  0.32550724  0.87605828     0.07600
H2550       H  0.10134932  0.32404051  0.85699703     0.11300
H2551       H  0.15785006  0.38349261  0.87592395     0.11100
H2552       H  0.12758277  0.38372077  0.89539398     0.07600
C2553       C  0.57579905  0.63219706  0.90473638    -0.11500
C2554       C  0.57775392  0.65976527  0.89978730     0.05700
C2555       C  0.55664706  0.67941761  0.90316482    -0.10300
C2556       C  0.53234914  0.67065047  0.90989432    -0.11900
C2557       C  0.52898800  0.64215588  0.91339923    -0.01700
C2558       C  0.55174099  0.62352192  0.91148978    -0.10800
C2559       C  0.59791973  0.66551323  0.88892597     0.05700
H2560       H  0.55795754  0.70101829  0.89974530     0.07600
H2561       H  0.51550613  0.68571974  0.91154427     0.11100
H2562       H  0.55021866  0.60156606  0.91434445     0.11300
H2563       H  0.59153533  0.61643487  0.90231071     0.07600
C2564       C  0.62462070  0.65246245  0.88867202    -0.11500
C2565       C  0.63990872  0.65077818  0.87689113    -0.10800
C2566       C  0.62886458  0.66239463  0.86520944    -0.01700
C2567       C  0.60340693  0.67759551  0.86576531    -0.11900
C2568       C  0.58812457  0.67915909  0.87749156    -0.10300
H2569       H  0.63291171  0.64213748  0.89739372     0.07600
H2570       H  0.65973717  0.63935210  0.87682759     0.11300
H2571       H  0.59456569  0.68727720  0.85699510     0.11100
H2572       H  0.56754880  0.68914614  0.87726579     0.07600
C2573       C  0.60764033  0.79322032  0.84256057    -0.11500
C2574       C  0.62694217  0.81556807  0.84392310     0.05700
C2575       C  0.65121775  0.81615267  0.83599223    -0.10300
C2576       C  0.65873008  0.79237483  0.82876772    -0.11900
C2577       C  0.64191520  0.76796398  0.82938261    -0.01700
C2578       C  0.61524943  0.76929483  0.83542092    -0.10800
C2579       C  0.62673784  0.83262895  0.85604903     0.05700
H2580       H  0.66628155  0.83330389  0.83671959     0.07600
H2581       H  0.67897102  0.79226667  0.82375732     0.11100
H2582       H  0.60148250  0.75103862  0.83571462     0.11300
H2583       H  0.58836038  0.79280306  0.84834243     0.07600
C2584       C  0.63583297  0.86080651  0.85599898    -0.11500
C2585       C  0.64072936  0.87485490  0.86791154    -0.10800
C2586       C  0.63651033  0.86086710  0.87999091    -0.01700
C2587       C  0.62736434  0.83271920  0.87997344    -0.11900
C2588       C  0.62249765  0.81879767  0.86814794    -0.10300
H2589       H  0.63963707  0.87171192  0.84676764     0.07600
H2590       H  0.64748428  0.89668030  0.86765995     0.11300
H2591       H  0.62398924  0.82131220  0.88911196     0.11100
H2592       H  0.61660005  0.79672571  0.86850738     0.07600
C2593       C  0.79477318  0.54879058  0.85789141    -0.11500
C2594       C  0.81175875  0.56485918  0.86661156     0.05700
C2595       C  0.81796154  0.59283154  0.86264419    -0.10300
C2596       C  0.80612369  0.60462750  0.85095811    -0.11900
C2597       C  0.78822336  0.58874256  0.84257753    -0.01700
C2598       C  0.78328096  0.56046981  0.84621464    -0.10800
C2599       C  0.82212221  0.55242884  0.87975294     0.05700
H2600       H  0.83068303  0.60622436  0.86896709     0.07600
H2601       H  0.80935691  0.62684526  0.84898406     0.11100
H2602       H  0.76870168  0.54781389  0.84044271     0.11300
H2603       H  0.78965771  0.52711910  0.86023840     0.07600
C2604       C  0.80549779  0.53284863  0.88687492    -0.11500
C2605       C  0.81600592  0.51881886  0.89819662    -0.10800
C2606       C  0.84351166  0.52382873  0.90309729    -0.01700
C2607       C  0.85963141  0.54452269  0.89646030    -0.11900
C2608       C  0.84906052  0.55875047  0.88511124    -0.10300
H2609       H  0.78446453  0.52755184  0.88345090     0.07600
H2610       H  0.80318511  0.50242506  0.90262925     0.11300
H2611       H  0.88131363  0.54820587  0.89944412     0.11100
H2612       H  0.86279853  0.57345772  0.88005237     0.07600
C2613       C  0.01801343  0.29273345  0.96311667    -0.11500
C2614       C  0.00997863  0.26595745  0.95820223     0.05700
C2615       C  0.98409816  0.26402998  0.95139290    -0.10300
C2616       C  0.96752558  0.28812219  0.94898327    -0.11900
C2617       C  0.97573072  0.31500354  0.95359973    -0.01700
C2618       C  0.00093624  0.31685869  0.96100079    -0.10800
C2619       C  0.02923491  0.24056824  0.95903775     0.05700
H2620       H  0.97727042  0.24399144  0.94733318     0.07600
H2621       H  0.94836453  0.28579672  0.94321052     0.11100
H2622       H  0.00813655  0.33716467  0.96459493     0.11300
H2623       H  0.03777811  0.29508785  0.96841662     0.07600
C2624       C  0.05781933  0.24263050  0.95528168    -0.11500
C2625       C  0.07472020  0.21834131  0.95388080    -0.10800
C2626       C  0.06390054  0.19120372  0.95657010    -0.01700
C2627       C  0.03588568  0.18923747  0.96115223    -0.11900
C2628       C  0.01870626  0.21351739  0.96222102    -0.10300
H2629       H  0.06666345  0.26291728  0.95262188     0.07600
H2630       H  0.09606794  0.22067980  0.95015879     0.11300
H2631       H  0.02666060  0.16872787  0.96305637     0.11100
H2632       H  0.99683608  0.21103712  0.96515988     0.07600
C2633       C  0.95808756  0.18287483  0.87869900    -0.11500
C2634       C  0.94562325  0.17243136  0.89031902     0.05700
C2635       C  0.91744492  0.16314974  0.88993323    -0.10300
C2636       C  0.90306285  0.16150088  0.87791356    -0.11900
C2637       C  0.91651259  0.16942548  0.86609815    -0.01700
C2638       C  0.94368966  0.18136091  0.86670346    -0.10800
C2639       C  0.96410290  0.16472613  0.90151845     0.05700
H2640       H  0.90722844  0.15535286  0.89878674     0.07600
H2641       H  0.88181939  0.15297344  0.87783179     0.11100
H2642       H  0.95445676  0.18825419  0.85782648     0.11300
H2643       H  0.97987304  0.18992797  0.87861953     0.07600
C2644       C  0.96266186  0.13704699  0.90641030    -0.11500
C2645       C  0.98593938  0.12511349  0.91265543    -0.10800
C2646       C  0.01095234  0.14073023  0.91417129    -0.01700
C2647       C  0.01078819  0.16968560  0.91116864    -0.11900
C2648       C  0.98744217  0.18163442  0.90486792    -0.10300
H2649       H  0.94491224  0.12347496  0.90408810     0.07600
H2650       H  0.98503274  0.10300754  0.91531432     0.11300
H2651       H  0.02943676  0.18256188  0.91268906     0.11100
H2652       H  0.98871630  0.20328265  0.90150824     0.07600
C2653       C  0.15880465  0.20118712  0.84054834    -0.11500
C2654       C  0.13102720  0.19972113  0.84541083     0.05700
C2655       C  0.11172039  0.22099200  0.84190187    -0.10300
C2656       C  0.12081625  0.24469777  0.83491704    -0.11900
C2657       C  0.14933675  0.24739872  0.83121793    -0.01700
C2658       C  0.16783275  0.22472511  0.83349140    -0.10800
C2659       C  0.12406995  0.17912804  0.85593017     0.05700
H2660       H  0.08998113  0.22011176  0.84523638     0.07600
H2661       H  0.10587923  0.26157075  0.83311130     0.11100
H2662       H  0.18984540  0.22589671  0.83059533     0.11300
H2663       H  0.17430562  0.18530983  0.84310503     0.07600
C2664       C  0.13622101  0.15204336  0.85602017    -0.11500
C2665       C  0.13511911  0.13542659  0.86741426    -0.10800
C2666       C  0.12171032  0.14559382  0.87887675    -0.01700
C2667       C  0.10753122  0.17160527  0.87836516    -0.11900
C2668       C  0.10880274  0.18821117  0.86706213    -0.10300
H2669       H  0.14768391  0.14425037  0.84749591     0.07600
H2670       H  0.14578510  0.11521190  0.86740982     0.11300
H2671       H  0.09661095  0.17992587  0.88693955     0.11100
H2672       H  0.09947194  0.20904692  0.86744289     0.07600
C2673       C  0.43814498  0.87564236  0.88162204    -0.11500
C2674       C  0.45482228  0.85141686  0.88370883     0.05700
C2675       C  0.45284755  0.82888848  0.87468086    -0.10300
C2676       C  0.43613120  0.83138191  0.86340003    -0.11900
C2677       C  0.42051135  0.85607741  0.86119064    -0.01700
C2678       C  0.42084828  0.87773671  0.87057660    -0.10800
C2679       C  0.47687373  0.85177043  0.89411382     0.05700
H2680       H  0.46483658  0.80968796  0.87608527     0.07600
H2681       H  0.43570909  0.81420125  0.85631254     0.11100
H2682       H  0.40900863  0.89700449  0.86899138     0.11300
H2683       H  0.43956020  0.89384597  0.88805473     0.07600
C2684       C  0.50343952  0.83933673  0.89172169    -0.11500
C2685       C  0.52673103  0.84689955  0.89937372    -0.10800
C2686       C  0.52381936  0.86745792  0.90923791    -0.01700
C2687       C  0.49686421  0.87712008  0.91273210    -0.11900
C2688       C  0.47342798  0.86882065  0.90539727    -0.10300
H2689       H  0.50706917  0.82598711  0.88320386     0.07600
H2690       H  0.54741673  0.83895143  0.89666081     0.11300
H2691       H  0.49417887  0.89242041  0.92060950     0.11100
H2692       H  0.45301375  0.87756659  0.90796487     0.07600
C2693       C  0.53064639  0.72225566  0.79083870    -0.11500
C2694       C  0.53122746  0.74665833  0.78295543     0.05700
C2695       C  0.55735047  0.75409706  0.77708453    -0.10300
C2696       C  0.58203775  0.73772308  0.77913856    -0.11900
C2697       C  0.58140750  0.71371259  0.78731998    -0.01700
C2698       C  0.55520644  0.70627503  0.79303508    -0.10800
C2699       C  0.50505884  0.76485058  0.78165346     0.05700
H2700       H  0.55876133  0.77277178  0.77097515     0.07600
H2701       H  0.60181402  0.74453211  0.77479745     0.11100
H2702       H  0.55378957  0.68820177  0.79954246     0.11300
H2703       H  0.51131897  0.71601488  0.79577261     0.07600
C2704       C  0.47775472  0.75286328  0.78052000    -0.11500
C2705       C  0.45316642  0.76978472  0.78105636    -0.10800
C2706       C  0.45515964  0.79916244  0.78287828    -0.01700
C2707       C  0.48237765  0.81119946  0.78340771    -0.11900
C2708       C  0.50688174  0.79442280  0.78266899    -0.10300
H2709       H  0.47536205  0.73021709  0.77964644     0.07600
H2710       H  0.43262256  0.75967200  0.78099956     0.11300
H2711       H  0.48468457  0.83363846  0.78515698     0.11100
H2712       H  0.52728608  0.80453409  0.78373970     0.07600
C2713       C  0.39966610  0.70448307  0.83658674    -0.11500
C2714       C  0.42276332  0.70682438  0.84523096     0.05700
C2715       C  0.44119128  0.72997798  0.84398355    -0.10300
C2716       C  0.43390732  0.75263617  0.83591246    -0.11900
C2717       C  0.40829901  0.75209440  0.82892097    -0.01700
C2718       C  0.39253655  0.72699557  0.82843491    -0.10800
C2719       C  0.42348294  0.68934154  0.85729261     0.05700
H2720       H  0.45969295  0.73181663  0.85024625     0.07600
H2721       H  0.44678367  0.77153424  0.83622213     0.11100
H2722       H  0.37315865  0.72577013  0.82274248     0.11300
H2723       H  0.38523708  0.68679271  0.83718277     0.07600
C2724       C  0.42836361  0.70265369  0.86949984    -0.11500
C2725       C  0.42474441  0.68807193  0.88123921    -0.10800
C2726       C  0.41584830  0.65985579  0.88111054    -0.01700
C2727       C  0.41148777  0.64614894  0.86894403    -0.11900
C2728       C  0.41531728  0.66081232  0.85709482    -0.10300
H2729       H  0.43372222  0.72483700  0.87005932     0.07600
H2730       H  0.42825007  0.69922689  0.89045861     0.11300
H2731       H  0.40510453  0.62421076  0.86859207     0.11100
H2732       H  0.41139032  0.65006193  0.84781410     0.07600
C2733       C  0.18036150  0.95930460  0.87948399    -0.11500
C2734       C  0.21008051  0.95711485  0.87879233     0.05700
C2735       C  0.22540904  0.96593319  0.89013152    -0.10300
C2736       C  0.21174949  0.97791101  0.90127873    -0.11900
C2737       C  0.18216983  0.98125361  0.90166465    -0.01700
C2738       C  0.16677828  0.97134212  0.89061769    -0.10800
C2739       C  0.22509961  0.94720533  0.86620016     0.05700
H2740       H  0.24823821  0.96441703  0.89027085     0.07600
H2741       H  0.22455927  0.98640477  0.90922933     0.11100
H2742       H  0.14416308  0.97483438  0.89017709     0.11300
H2743       H  0.16755406  0.95330556  0.87106458     0.07600
C2744       C  0.21376920  0.92626573  0.85763343    -0.11500
C2745       C  0.22910602  0.91609109  0.84646383    -0.10800
C2746       C  0.25619109  0.92673746  0.84341189    -0.01700
C2747       C  0.26646964  0.94885275  0.85150087    -0.11900
C2748       C  0.25140905  0.95879898  0.86257898    -0.10300
H2749       H  0.19355865  0.91672266  0.85989725     0.07600
H2750       H  0.22050228  0.89878825  0.84073059     0.11300
H2751       H  0.28716171  0.95776691  0.84957773     0.11100
H2752       H  0.26076673  0.97550580  0.86843867     0.07600
C2753       C  0.04730335  0.52693273  0.99577731    -0.11500
C2754       C  0.02498774  0.51189651  0.00173918     0.05700
C2755       C  0.02792958  0.50440637  0.01518460    -0.10300
C2756       C  0.05191215  0.51228066  0.02245977    -0.11900
C2757       C  0.07332921  0.52855133  0.01664472    -0.01700
C2758       C  0.07093887  0.53545223  0.00317357    -0.10800
C2759       C  0.99902937  0.50372115  0.99400801     0.05700
H2760       H  0.01118964  0.49344594  0.02034156     0.07600
H2761       H  0.05263282  0.50751212  0.03293064     0.11100
H2762       H  0.08691467  0.54840025  0.99848494     0.11300
H2763       H  0.04641740  0.53255462  0.98542193     0.07600
C2764       C  0.98903236  0.51996969  0.98325573    -0.11500
C2765       C  0.96592847  0.51080810  0.97554356    -0.10800
C2766       C  0.95195256  0.48541200  0.97852661    -0.01700
C2767       C  0.96105616  0.47013075  0.98968622    -0.11900
C2768       C  0.98425629  0.47890776  0.99716778    -0.10300
H2769       H  0.99926145  0.53960339  0.98064428     0.07600
H2770       H  0.95967336  0.52307979  0.96700933     0.11300
H2771       H  0.95102926  0.45041755  0.99237372     0.11100
H2772       H  0.99120521  0.46537905  0.00513049     0.07600
C2773       C  0.22496132  0.53162432  0.00275562    -0.11500
C2774       C  0.25261560  0.54268402  0.00302329     0.05700
C2775       C  0.26177495  0.55684059  0.01445125    -0.10300
C2776       C  0.24351405  0.56090160  0.02514488    -0.11900
C2777       C  0.21563894  0.55056781  0.02482541    -0.01700
C2778       C  0.20672680  0.53521311  0.01364685    -0.10800
C2779       C  0.27160530  0.54155597  0.99125751     0.05700
H2780       H  0.28277214  0.56593905  0.01487116     0.07600
H2781       H  0.25091998  0.57309880  0.03353396     0.11100
H2782       H  0.18521200  0.52748116  0.01300804     0.11300
H2783       H  0.21733216  0.52072361  0.99403303     0.07600
C2784       C  0.29980691  0.53249858  0.99255669    -0.11500
C2785       C  0.31912825  0.53579260  0.98212601    -0.10800
C2786       C  0.31083526  0.54888703  0.97028511    -0.01700
C2787       C  0.28236616  0.55693465  0.96880226    -0.11900
C2788       C  0.26285627  0.55292051  0.97909915    -0.10300
H2789       H  0.30713001  0.52379805  0.00184390     0.07600
H2790       H  0.34099234  0.52981258  0.98363984     0.11300
H2791       H  0.27545807  0.56728424  0.95982466     0.11100
H2792       H  0.24136511  0.56035470  0.97786087     0.07600
C2793       C  0.25506711  0.29893470  0.23663794    -0.11500
C2794       C  0.27449833  0.29062939  0.24651552     0.05700
C2795       C  0.29812283  0.30799740  0.24877387    -0.10300
C2796       C  0.30303490  0.33186924  0.24098872    -0.11900
C2797       C  0.28479086  0.33901877  0.23050678    -0.01700
C2798       C  0.26023657  0.32270119  0.22868427    -0.10800
C2799       C  0.27069132  0.26369495  0.25414110     0.05700
H2800       H  0.31375249  0.30248620  0.25614050     0.07600
H2801       H  0.32222078  0.34380134  0.24271301     0.11100
H2802       H  0.24572044  0.32744454  0.22070677     0.11300
H2803       H  0.23610478  0.28673478  0.23481936     0.07600
C2804       C  0.25744112  0.24017672  0.24828145    -0.11500
C2805       C  0.25184792  0.21584081  0.25564478    -0.10800
C2806       C  0.25963487  0.21409040  0.26903560    -0.01700
C2807       C  0.27487987  0.23651563  0.27465968    -0.11900
C2808       C  0.28015183  0.26111489  0.26734060    -0.10300
H2809       H  0.25070743  0.24072661  0.23805684     0.07600
H2810       H  0.23993834  0.19890340  0.25106403     0.11300
H2811       H  0.28056694  0.23605721  0.28503742     0.11100
H2812       H  0.29028822  0.27863686  0.27231215     0.07600
C2813       C  0.32932847  0.51790254  0.25988199    -0.11500
C2814       C  0.30629671  0.52181361  0.25133092     0.05700
C2815       C  0.28548923  0.54170072  0.25475686    -0.10300
C2816       C  0.28864062  0.55850717  0.26617393    -0.11900
C2817       C  0.31255159  0.55550888  0.27440219    -0.01700
C2818       C  0.33236964  0.53437830  0.27125505    -0.10800
C2819       C  0.30578503  0.50644549  0.23848778     0.05700
H2820       H  0.26755988  0.54514229  0.24829287     0.07600
H2821       H  0.27304321  0.57464824  0.26822343     0.11100
H2822       H  0.35094559  0.53119172  0.27733678     0.11300
H2823       H  0.34549149  0.50248377  0.25754774     0.07600
C2824       C  0.32959546  0.50773199  0.23025318    -0.11500
C2825       C  0.33150662  0.49081528  0.21898832    -0.10800
C2826       C  0.30977128  0.47171772  0.21567309    -0.01700
C2827       C  0.28515666  0.47150208  0.22353217    -0.11900
C2828       C  0.28311651  0.48887977  0.23481063    -0.10300
H2829       H  0.34722499  0.52132142  0.23278323     0.07600
H2830       H  0.35076919  0.49184852  0.21322022     0.11300
H2831       H  0.26805747  0.45704031  0.22132355     0.11100
H2832       H  0.26451785  0.48753039  0.24101953     0.07600
C2833       C  0.24139435  0.46913001  0.13329781    -0.11500
C2834       C  0.21688412  0.45723695  0.12755578     0.05700
C2835       C  0.20625121  0.43243002  0.13361278    -0.10300
C2836       C  0.22041528  0.41942410  0.14443922    -0.11900
C2837       C  0.24535563  0.43110495  0.14985385    -0.01700
C2838       C  0.25526374  0.45633279  0.14411246    -0.10800
C2839       C  0.20310500  0.47062322  0.11532759     0.05700
H2840       H  0.18767036  0.42221481  0.12958268     0.07600
H2841       H  0.21269364  0.39939611  0.14809472     0.11100
H2842       H  0.27488863  0.46551084  0.14760237     0.11300
H2843       H  0.25031771  0.48832655  0.12929988     0.07600
C2844       C  0.21943181  0.48473167  0.10563018    -0.11500
C2845       C  0.20671165  0.49935595  0.09495909    -0.10800
C2846       C  0.17710821  0.50026801  0.09333857    -0.01700
C2847       C  0.16077488  0.48543314  0.10272287    -0.11900
C2848       C  0.17347684  0.47065432  0.11339048    -0.10300
H2849       H  0.24224923  0.48510055  0.10642488     0.07600
H2850       H  0.22008636  0.51131149  0.08832159     0.11300
H2851       H  0.13793098  0.48659027  0.10224148     0.11100
H2852       H  0.15985498  0.46050947  0.12054368     0.07600
C2853       C  0.55376419  0.98251213  0.99758992    -0.11500
C2854       C  0.53782615  0.00708104  0.99540584     0.05700
C2855       C  0.54702042  0.02565043  0.98534436    -0.10300
C2856       C  0.57035373  0.01895157  0.97726191    -0.11900
C2857       C  0.58538775  0.99369919  0.97914037    -0.01700
C2858       C  0.57720291  0.97610316  0.98970887    -0.10800
C2859       C  0.51134447  0.01261742  0.00327274     0.05700
H2860       H  0.53591826  0.04521601  0.98352544     0.07600
H2861       H  0.57592793  0.03301511  0.96924983     0.11100
H2862       H  0.58806096  0.95638064  0.99153216     0.11300
H2863       H  0.54749727  0.96738643  0.00503119     0.07600
C2864       C  0.50843501  0.00312171  0.01645227    -0.11500
C2865       C  0.48385707  0.00882982  0.02380938    -0.10800
C2866       C  0.46166884  0.02453406  0.01827134    -0.01700
C2867       C  0.46409419  0.03314692  0.00499996    -0.11900
C2868       C  0.48840114  0.02713581  0.99760136    -0.10300
H2869       H  0.52557650  0.99219246  0.02132963     0.07600
H2870       H  0.48299358  0.00248941  0.03408694     0.11300
H2871       H  0.44744381  0.04542973  0.00043108     0.11100
H2872       H  0.48919303  0.03413042  0.98742928     0.07600
C2873       C  0.23186027  0.01265525  0.99081615    -0.11500
C2874       C  0.25888509  0.02502971  0.99098996     0.05700
C2875       C  0.26829811  0.03945828  0.97971305    -0.10300
C2876       C  0.25038686  0.04304870  0.96882036    -0.11900
C2877       C  0.22279603  0.03186957  0.96884005    -0.01700
C2878       C  0.21408813  0.01574003  0.97977493    -0.10800
C2879       C  0.27599279  0.02587054  0.00332231     0.05700
H2880       H  0.28891759  0.04942333  0.97964556     0.07600
H2881       H  0.25769498  0.05569155  0.96058841     0.11100
H2882       H  0.19287776  0.00716341  0.98017867     0.11300
H2883       H  0.22415371  0.00147486  0.99942301     0.07600
C2884       C  0.26477176  0.03842973  0.01476430    -0.11500
C2885       C  0.28191492  0.04336126  0.02582862    -0.10800
C2886       C  0.31050645  0.03522378  0.02581335    -0.01700
C2887       C  0.32129075  0.02111964  0.01464477    -0.11900
C2888       C  0.30430751  0.01687607  0.00342513    -0.10300
H2889       H  0.24311731  0.04586406  0.01486669     0.07600
H2890       H  0.27309985  0.05452274  0.03422716     0.11300
H2891       H  0.34335939  0.01506930  0.01424950     0.11100
H2892       H  0.31347383  0.00731066  0.99468613     0.07600
C2893       C  0.39758848  0.15135303  0.14002376    -0.11500
C2894       C  0.41147596  0.17746429  0.14121523     0.05700
C2895       C  0.42555210  0.18853990  0.13011806    -0.10300
C2896       C  0.42419361  0.17492596  0.11794905    -0.11900
C2897       C  0.40864417  0.14993386  0.11653722    -0.01700
C2898       C  0.39613804  0.13773106  0.12778369    -0.10800
C2899       C  0.40689602  0.19591080  0.15287064     0.05700
H2900       H  0.43605196  0.20881177  0.13052370     0.07600
H2901       H  0.43456289  0.18456651  0.10954475     0.11100
H2902       H  0.38441852  0.11814979  0.12705801     0.11300
H2903       H  0.38684213  0.14204903  0.14840338     0.07600
C2904       C  0.37976455  0.19762531  0.15847211    -0.11500
C2905       C  0.37152410  0.22189027  0.16521523    -0.10800
C2906       C  0.39018848  0.24485787  0.16633659    -0.01700
C2907       C  0.41860750  0.24118465  0.16271574    -0.11900
C2908       C  0.42699934  0.21663088  0.15619043    -0.10300
H2909       H  0.36377967  0.18190330  0.15635830     0.07600
H2910       H  0.34971020  0.22362491  0.16837189     0.11300
H2911       H  0.43380940  0.25809060  0.16392421     0.11100
H2912       H  0.44848285  0.21521251  0.15254804     0.07600
C2913       C  0.25886386  0.78653169  0.24647655    -0.11500
C2914       C  0.27071008  0.76361101  0.23955892     0.05700
C2915       C  0.27787632  0.76768382  0.22613030    -0.10300
C2916       C  0.27181073  0.79336457  0.21970194    -0.11900
C2917       C  0.25835772  0.81550698  0.22653063    -0.01700
C2918       C  0.25260558  0.81190306  0.24005882    -0.10800
C2919       C  0.27547800  0.73595609  0.24652259     0.05700
H2920       H  0.28704426  0.75065367  0.22042072     0.07600
H2921       H  0.27597906  0.79522081  0.20920629     0.11100
H2922       H  0.24220166  0.82848016  0.24561211     0.11300
H2923       H  0.25395595  0.78478911  0.25689615     0.07600
C2924       C  0.25690665  0.72675525  0.25657422    -0.11500
C2925       C  0.26338362  0.70324284  0.26447453    -0.10800
C2926       C  0.28850294  0.68802458  0.26247244    -0.01700
C2927       C  0.30575174  0.69569168  0.25165166    -0.11900
C2928       C  0.29941339  0.71931915  0.24383771    -0.10300
H2929       H  0.23771168  0.73835152  0.25867267     0.07600
H2930       H  0.24954820  0.69806894  0.27264750     0.11300
H2931       H  0.32528685  0.68450558  0.24971930     0.11100
H2932       H  0.31422332  0.72544669  0.23620543     0.07600
C2933       C  0.23912260  0.01860025  0.23275777    -0.11500
C2934       C  0.24994380  0.00821152  0.24474935     0.05700
C2935       C  0.25808799  0.97971375  0.24542892    -0.10300
C2936       C  0.25412111  0.96165385  0.23456736    -0.11900
C2937       C  0.24126415  0.97159659  0.22294942    -0.01700
C2938       C  0.23443709  0.00039321  0.22204033    -0.10800
C2939       C  0.24934509  0.02621318  0.25684071     0.05700
H2940       H  0.26650980  0.97119240  0.25454528     0.07600
H2941       H  0.25920426  0.93948522  0.23559089     0.11100
H2942       H  0.22432604  0.00854388  0.21322456     0.11300
H2943       H  0.23248882  0.04040319  0.23197412     0.07600
C2944       C  0.25996700  0.05391205  0.25667002    -0.11500
C2945       C  0.25575216  0.07199233  0.26749680    -0.10800
C2946       C  0.24011798  0.06300917  0.27855657    -0.01700
C2947       C  0.23044720  0.03497931  0.27892313    -0.11900
C2948       C  0.23533820  0.01668399  0.26825728    -0.10300
H2949       H  0.27080055  0.06180553  0.24799694     0.07600
H2950       H  0.26318006  0.09356810  0.26685858     0.11300
H2951       H  0.21825689  0.02750187  0.28727862     0.11100
H2952       H  0.22669674  0.99553347  0.26861142     0.07600
C2953       C  0.09522995  0.73963229  0.15223456    -0.11500
C2954       C  0.11383188  0.71686894  0.15015098     0.05700
C2955       C  0.13964612  0.71629922  0.15696294    -0.10300
C2956       C  0.14858621  0.73984348  0.16398498    -0.11900
C2957       C  0.13191175  0.76435778  0.16427902    -0.01700
C2958       C  0.10429967  0.76340745  0.15922988    -0.10800
C2959       C  0.11037927  0.69822836  0.13854915     0.05700
H2960       H  0.15443040  0.69908452  0.15565728     0.07600
H2961       H  0.16960043  0.73958836  0.16825308     0.11100
H2962       H  0.09068929  0.78175485  0.15968434     0.11300
H2963       H  0.07482730  0.74017792  0.14737218     0.07600
C2964       C  0.10235903  0.71035273  0.12646970    -0.11500
C2965       C  0.10603913  0.69570142  0.11470176    -0.10800
C2966       C  0.11780215  0.66849108  0.11468878    -0.01700
C2967       C  0.12437324  0.65563105  0.12681644    -0.11900
C2968       C  0.12060519  0.67037260  0.13866712    -0.10300
H2969       H  0.09502229  0.73196174  0.12595933     0.07600
H2970       H  0.10036411  0.70615534  0.10556427     0.11300
H2971       H  0.13286627  0.63442995  0.12714275     0.11100
H2972       H  0.12681892  0.66047826  0.14786446     0.07600
C2973       C  0.35997927  0.95665952  0.11368564    -0.11500
C2974       C  0.33094374  0.95847683  0.11689093     0.05700
C2975       C  0.31330217  0.97222255  0.10767195    -0.10300
C2976       C  0.32431859  0.98517792  0.09619818    -0.11900
C2977       C  0.35350156  0.98505000  0.09335969    -0.01700
C2978       C  0.37110725  0.97009057  0.10223095    -0.10800
C2979       C  0.31905554  0.94877505  0.13016411     0.05700
H2980       H  0.29087842  0.97406910  0.10965328     0.07600
H2981       H  0.31013082  0.99731866  0.09001947     0.11100
H2982       H  0.39380705  0.97054577  0.10084050     0.11300
H2983       H  0.37440313  0.94654578  0.12050875     0.07600
C2984       C  0.32276714  0.92114475  0.13515609    -0.11500
C2985       C  0.30863055  0.91202275  0.14683859    -0.10800
C2986       C  0.29090488  0.93041075  0.15410711    -0.01700
C2987       C  0.28855664  0.95832536  0.14941189    -0.11900
C2988       C  0.30226025  0.96727767  0.13775213    -0.10300
H2989       H  0.33528957  0.90609472  0.12961755     0.07600
H2990       H  0.31002632  0.89004478  0.14966661     0.11300
H2991       H  0.27442129  0.97291560  0.15434735     0.11100
H2992       H  0.29892945  0.98870549  0.13440083     0.07600
C2993       C  0.75733446  0.23388671  0.25122035    -0.11500
C2994       C  0.76960512  0.25774886  0.24522761     0.05700
C2995       C  0.77525730  0.25652716  0.23153332    -0.10300
C2996       C  0.76828907  0.23258282  0.22404913    -0.11900
C2997       C  0.75497351  0.20936048  0.22996495    -0.01700
C2998       C  0.74979229  0.21017444  0.24365276    -0.10800
C2999       C  0.77675587  0.28367241  0.25314218     0.05700
H3000       H  0.78405362  0.27454130  0.22642362     0.07600
H3001       H  0.77142243  0.23308206  0.21343652     0.11100
H3002       H  0.73892326  0.19282120  0.24840775     0.11300
H3003       H  0.75312400  0.23364684  0.26173887     0.07600
C3004       C  0.76035314  0.29238556  0.26410088    -0.11500
C3005       C  0.76844384  0.31579680  0.27186252    -0.10800
C3006       C  0.79305944  0.33112027  0.26881450    -0.01700
C3007       C  0.80845697  0.32320563  0.25745478    -0.11900
C3008       C  0.80062860  0.29984049  0.24985723    -0.10300
H3009       H  0.74146998  0.28087417  0.26682059     0.07600
H3010       H  0.75620894  0.32103886  0.28057600     0.11300
H3011       H  0.82760796  0.33430512  0.25473274     0.11100
H3012       H  0.81413333  0.29384135  0.24168585     0.07600
C3013       C  0.75059082  0.05582708  0.24488623    -0.11500
C3014       C  0.74427114  0.02691085  0.24350405     0.05700
C3015       C  0.73662968  0.01678792  0.23091818    -0.10300
C3016       C  0.73325234  0.03540755  0.22025574    -0.11900
C3017       C  0.73818440  0.06451202  0.22179353    -0.01700
C3018       C  0.74791151  0.07437190  0.23410492    -0.10800
C3019       C  0.74249098  0.00797796  0.25531356     0.05700
H3020       H  0.73139133  0.99473165  0.22953477     0.07600
H3021       H  0.72536582  0.02726770  0.21093850     0.11100
H3022       H  0.75134114  0.09672901  0.23566598     0.11300
H3023       H  0.75657502  0.06425298  0.25445045     0.07600
C3024       C  0.75440757  0.98073316  0.25522852    -0.11500
C3025       C  0.74996555  0.96205972  0.26584586    -0.10800
C3026       C  0.73287950  0.96996133  0.27661755    -0.01700
C3027       C  0.72162158  0.99746464  0.27682898    -0.11900
C3028       C  0.72660686  0.01628414  0.26640492    -0.10300
H3029       H  0.76668178  0.97369375  0.24680878     0.07600
H3030       H  0.75857329  0.94092263  0.26528247     0.11300
H3031       H  0.70818923  0.00417333  0.28492165     0.11100
H3032       H  0.71682656  0.03693413  0.26671695     0.07600
C3033       C  0.47653613  0.26938305  0.21737758    -0.11500
C3034       C  0.50287311  0.27803865  0.21217434     0.05700
C3035       C  0.50372079  0.30353280  0.20508300    -0.10300
C3036       C  0.47885441  0.31873578  0.20243365    -0.11900
C3037       C  0.45233400  0.30937633  0.20703044    -0.01700
C3038       C  0.45163375  0.28501743  0.21495780    -0.10800
C3039       C  0.52864057  0.25933471  0.21274969     0.05700
H3040       H  0.52340190  0.31085007  0.20082537     0.07600
H3041       H  0.48019916  0.33735424  0.19626982     0.11100
H3042       H  0.43160729  0.27704973  0.21855671     0.11300
H3043       H  0.47504580  0.24998268  0.22296958     0.07600
C3044       C  0.55604596  0.27049335  0.21469815    -0.11500
C3045       C  0.58031172  0.25341946  0.21326831    -0.10800
C3046       C  0.57781548  0.22488785  0.20960020    -0.01700
C3047       C  0.55045115  0.21352190  0.20819316    -0.11900
C3048       C  0.52628089  0.23035539  0.20989671    -0.10300
H3049       H  0.55875263  0.29267647  0.21693909     0.07600
H3050       H  0.60103435  0.26295754  0.21420121     0.11300
H3051       H  0.54775975  0.19170278  0.20523453     0.11100
H3052       H  0.50571804  0.22099718  0.20816129     0.07600
C3053       C  0.58579556  0.18582419  0.11896142    -0.11500
C3054       C  0.58222764  0.16301481  0.11027259     0.05700
C3055       C  0.59628804  0.13738785  0.11288553    -0.10300
C3056       C  0.61259265  0.13432127  0.12426436    -0.11900
C3057       C  0.61440000  0.15657486  0.13329620    -0.01700
C3058       C  0.60149750  0.18250337  0.13045701    -0.10800
C3059       C  0.56071503  0.16426600  0.09973516     0.05700
H3060       H  0.59347374  0.11916431  0.10655133     0.07600
H3061       H  0.62256860  0.11423652  0.12633211     0.11100
H3062       H  0.60335109  0.20013082  0.13723357     0.11300
H3063       H  0.57567093  0.20591865  0.11711001     0.07600
C3064       C  0.56406873  0.14813044  0.08818864    -0.11500
C3065       C  0.54061569  0.14135806  0.08053048    -0.10800
C3066       C  0.51383019  0.15131773  0.08416970    -0.01700
C3067       C  0.51117653  0.17099297  0.09441847    -0.11900
C3068       C  0.53449382  0.17724363  0.10227899    -0.10300
H3069       H  0.58427382  0.13874333  0.08573635     0.07600
H3070       H  0.54300287  0.12660125  0.07240732     0.11300
H3071       H  0.49059429  0.17897101  0.09728640     0.11100
H3072       H  0.53113144  0.18980372  0.11108982     0.07600
C3073       C  0.98682299  0.02578783  0.00999792    -0.11500
C3074       C  0.99366722  0.00637317  0.99987101     0.05700
C3075       C  0.97534939  0.98343722  0.99781184    -0.10300
C3076       C  0.95194056  0.97912130  0.00604780    -0.11900
C3077       C  0.94609848  0.99745644  0.01670571    -0.01700
C3078       C  0.96335425  0.02138210  0.01831255    -0.10800
C3079       C  0.02026415  0.00931761  0.99184573     0.05700
H3080       H  0.97979821  0.96797800  0.99019841     0.07600
H3081       H  0.93912018  0.96051794  0.00440504     0.11100
H3082       H  0.95958830  0.03594078  0.02638884     0.11300
H3083       H  0.00000477  0.04411794  0.01169848     0.07600
C3084       C  0.04539542  0.01906625  0.99774787    -0.11500
C3085       C  0.06994655  0.02309908  0.99021000    -0.10800
C3086       C  0.07029275  0.01727732  0.97655020    -0.01700
C3087       C  0.04571076  0.00609019  0.97073908    -0.11900
C3088       C  0.02098740  0.00222972  0.97827857    -0.10300
H3089       H  0.04600763  0.02404453  0.00819909     0.07600
H3090       H  0.08844391  0.03200753  0.99496967     0.11300
H3091       H  0.04498753  0.00218381  0.96018568     0.11100
H3092       H  0.00207752  0.99483374  0.97333034     0.07600
C3093       C  0.72983145  0.00322067  0.99234729    -0.11500
C3094       C  0.75817026  0.99423361  0.99246390     0.05700
C3095       C  0.76932297  0.98150122  0.98105229    -0.10300
C3096       C  0.75202040  0.97622664  0.97006297    -0.11900
C3097       C  0.72337939  0.98429320  0.97008347    -0.01700
C3098       C  0.71269521  0.99865473  0.98118474    -0.10800
C3099       C  0.77503921  0.99461210  0.00488126     0.05700
H3100       H  0.79096592  0.97401849  0.98095553     0.07600
H3101       H  0.76072000  0.96478261  0.96172061     0.11100
H3102       H  0.69059465  0.00456978  0.98158822     0.11300
H3103       H  0.72070841  0.01286272  0.00107778     0.07600
C3104       C  0.80221158  0.00667076  0.00530813    -0.11500
C3105       C  0.81949165  0.00320773  0.01648991    -0.10800
C3106       C  0.81017667  0.98688403  0.02723900    -0.01700
C3107       C  0.78259971  0.97585820  0.02699796    -0.11900
C3108       C  0.76510751  0.97997645  0.01601010    -0.10300
H3109       H  0.81035929  0.01796586  0.99682481     0.07600
H3110       H  0.84077852  0.01165840  0.01636287     0.11300
H3111       H  0.77495355  0.96311098  0.03512830     0.11100
H3112       H  0.74437505  0.97025998  0.01587941     0.07600
C3113       C  0.04333042  0.85940170  0.10351972    -0.11500
C3114       C  0.06893046  0.87298845  0.10038208     0.05700
C3115       C  0.06958329  0.89199098  0.08974201    -0.10300
C3116       C  0.04449626  0.90035613  0.08370484    -0.11900
C3117       C  0.01863173  0.88902987  0.08791116    -0.01700
C3118       C  0.01836509  0.86724185  0.09723553    -0.10800
C3119       C  0.09257135  0.87214019  0.10993328     0.05700
H3120       H  0.08914852  0.90207052  0.08680970     0.07600
H3121       H  0.04513620  0.91668563  0.07622932     0.11100
H3122       H  0.99858898  0.85807441  0.10051694     0.11300
H3123       H  0.04193967  0.84474676  0.11168767     0.07600
C3124       C  0.10656811  0.89740545  0.11328880    -0.11500
C3125       C  0.12329841  0.89891811  0.12458095    -0.10800
C3126       C  0.12582659  0.87537979  0.13279927    -0.01700
C3127       C  0.11380600  0.84956566  0.12898128    -0.11900
C3128       C  0.09758268  0.84785011  0.11751612    -0.10300
H3129       H  0.10288829  0.91667284  0.10783005     0.07600
H3130       H  0.13261663  0.91895741  0.12736749     0.11300
H3131       H  0.11623916  0.83096685  0.13509306     0.11100
H3132       H  0.08763920  0.82795697  0.11501911     0.07600
C3133       C  0.81923233  0.07702361  0.10564643    -0.11500
C3134       C  0.83319653  0.07921165  0.11803581     0.05700
C3135       C  0.85986518  0.06620697  0.11907444    -0.10300
C3136       C  0.87142214  0.05065863  0.10846403    -0.11900
C3137       C  0.85699824  0.04741264  0.09630414    -0.01700
C3138       C  0.83080288  0.06121509  0.09501291    -0.10800
C3139       C  0.81935027  0.09363847  0.12988639     0.05700
H3140       H  0.87162252  0.06740995  0.12824565     0.07600
H3141       H  0.89120128  0.03963249  0.11003768     0.11100
H3142       H  0.81837362  0.05825530  0.08612140     0.11300
H3143       H  0.79846943  0.08621329  0.10437215     0.07600
C3144       C  0.80175336  0.11725858  0.12812149    -0.11500
C3145       C  0.78591675  0.12853894  0.13866255    -0.10800
C3146       C  0.78688533  0.11688553  0.15151339    -0.01700
C3147       C  0.80595305  0.09450809  0.15361401    -0.11900
C3148       C  0.82203151  0.08315273  0.14297608    -0.10300
H3149       H  0.79948615  0.12664543  0.11842859     0.07600
H3150       H  0.77153242  0.14574755  0.13657102     0.11300
H3151       H  0.80703458  0.08454372  0.16322553     0.11100
H3152       H  0.83529520  0.06501440  0.14488725     0.07600
C3153       C  0.00452132  0.80614056  0.03174177    -0.11500
C3154       C  0.99867064  0.78057430  0.03836598     0.05700
C3155       C  0.97629197  0.78045313  0.04751976    -0.10300
C3156       C  0.96119367  0.80521175  0.05045274    -0.11900
C3157       C  0.96755763  0.83105912  0.04420694    -0.01700
C3158       C  0.98896684  0.83095527  0.03451040    -0.10800
C3159       C  0.01702633  0.75473463  0.03675875     0.05700
H3160       H  0.97126210  0.76139750  0.05292317     0.07600
H3161       H  0.94482758  0.80419967  0.05792615     0.11100
H3162       H  0.99454369  0.85032030  0.02948301     0.11300
H3163       H  0.02149217  0.80705690  0.02457109     0.07600
C3164       C  0.00522810  0.72736283  0.03619519    -0.11500
C3165       C  0.02247697  0.70308922  0.03680951    -0.10800
C3166       C  0.05196391  0.70551593  0.03824197    -0.01700
C3167       C  0.06381711  0.73280087  0.03820689    -0.11900
C3168       C  0.04668634  0.75699621  0.03728176    -0.10300
H3169       H  0.98250365  0.72472971  0.03575149     0.07600
H3170       H  0.01258780  0.68248494  0.03710042     0.11300
H3171       H  0.08640002  0.73544723  0.03951520     0.11100
H3172       H  0.05659363  0.77756170  0.03786840     0.07600
C3173       C  0.54162756  0.47949048  0.00039093    -0.11500
C3174       C  0.52738304  0.50501028  0.00285602     0.05700
C3175       C  0.53896715  0.52336193  0.01248745    -0.10300
C3176       C  0.56316373  0.51570361  0.01980058    -0.11900
C3177       C  0.57673831  0.48974966  0.01749690    -0.01700
C3178       C  0.56608524  0.47232282  0.00735151    -0.10800
C3179       C  0.50077969  0.51208768  0.99534676     0.05700
H3180       H  0.52923505  0.54356501  0.01450862     0.07600
H3181       H  0.57071944  0.52971550  0.02750137     0.11100
H3182       H  0.57582066  0.45217957  0.00516841     0.11300
H3183       H  0.53348618  0.46432888  0.99334715     0.07600
C3184       C  0.49645714  0.50172649  0.98240008    -0.11500
C3185       C  0.47214921  0.50864753  0.97519151    -0.10800
C3186       C  0.45166769  0.52680571  0.98050566    -0.01700
C3187       C  0.45542885  0.53675582  0.99351709    -0.11900
C3188       C  0.47945065  0.52920455  0.00090262    -0.10300
H3189       H  0.51239079  0.48913839  0.97749972     0.07600
H3190       H  0.47038490  0.50133164  0.96506774     0.11300
H3191       H  0.44016545  0.55109022  0.99784087     0.11100
H3192       H  0.48141047  0.53716005  0.01089836     0.07600
C3193       C  0.78906078  0.48631214  0.98837448    -0.11500
C3194       C  0.77615240  0.46310781  0.99456729     0.05700
C3195       C  0.77835868  0.43643859  0.98861073    -0.10300
C3196       C  0.79327140  0.43291597  0.97679601    -0.11900
C3197       C  0.80694987  0.45588419  0.97069336    -0.01700
C3198       C  0.80460368  0.48269482  0.97663288    -0.10800
C3199       C  0.76028813  0.46624380  0.00719312     0.05700
H3200       H  0.76845402  0.41822594  0.99311926     0.07600
H3201       H  0.79483000  0.41185544  0.97268975     0.11100
H3202       H  0.81513566  0.50076601  0.97233069     0.11300
H3203       H  0.78772361  0.50707916  0.99281343     0.07600
C3204       C  0.76621372  0.44834120  0.01787646    -0.11500
C3205       C  0.74920630  0.44864255  0.02918565    -0.10800
C3206       C  0.72546084  0.46654719  0.03005598    -0.01700
C3207       C  0.72044129  0.48554177  0.01962660    -0.11900
C3208       C  0.73778913  0.48546745  0.00833415    -0.10300
H3209       H  0.78357025  0.43347607  0.01730273     0.07600
H3210       H  0.75385813  0.43370879  0.03698289     0.11300
H3211       H  0.70217243  0.49929318  0.01983457     0.11100
H3212       H  0.73269518  0.49934557  0.00018067     0.07600
C3213       C  0.54947606  0.26974408  0.04275023    -0.11500
C3214       C  0.52254546  0.27187212  0.03690134     0.05700
C3215       C  0.51376266  0.29872957  0.03246022    -0.10300
C3216       C  0.53110680  0.32274495  0.03413749    -0.11900
C3217       C  0.55746858  0.32060230  0.04051123    -0.01700
C3218       C  0.56648371  0.29370920  0.04462722    -0.10800
C3219       C  0.50325067  0.24652391  0.03634573     0.05700
H3220       H  0.49322233  0.30126388  0.02788559     0.07600
H3221       H  0.52323383  0.34319490  0.03111663     0.11100
H3222       H  0.58646343  0.29136676  0.04975475     0.11300
H3223       H  0.55691024  0.24969025  0.04649467     0.07600
C3224       C  0.51378232  0.21928729  0.03352087    -0.11500
C3225       C  0.49635189  0.19522427  0.03452106    -0.10800
C3226       C  0.46804511  0.19764786  0.03863524    -0.01700
C3227       C  0.45721759  0.22491261  0.04091526    -0.11900
C3228       C  0.47443146  0.24897192  0.03965731    -0.10300
H3229       H  0.53576640  0.21649371  0.03083961     0.07600
H3230       H  0.50551607  0.17457064  0.03289515     0.11300
H3231       H  0.43558781  0.22753283  0.04421562     0.11100
H3232       H  0.46551075  0.26939914  0.04202397     0.07600
C3233       C  0.45289986  0.38212219  0.08775541    -0.11500
C3234       C  0.45231888  0.35399356  0.09210545     0.05700
C3235       C  0.47502836  0.33612743  0.08895818    -0.10300
C3236       C  0.49951245  0.34721973  0.08333628    -0.11900
C3237       C  0.50139831  0.37625387  0.08063280    -0.01700
C3238       C  0.47724085  0.39314903  0.08204928    -0.10800
C3239       C  0.43223545  0.34614323  0.10263767     0.05700
H3240       H  0.47480710  0.31417249  0.09191096     0.07600
H3241       H  0.51751618  0.33341699  0.08194160     0.11100
H3242       H  0.47776384  0.41542872  0.07971002     0.11300
H3243       H  0.43578056  0.39650056  0.09001151     0.07600
C3244       C  0.40476040  0.35737676  0.10280942    -0.11500
C3245       C  0.38960660  0.35858379  0.11462270    -0.10800
C3246       C  0.40168548  0.34833963  0.12637258    -0.01700
C3247       C  0.42767335  0.33412552  0.12581731    -0.11900
C3248       C  0.44281394  0.33306040  0.11407057    -0.10300
H3249       H  0.39590711  0.36711181  0.09405716     0.07600
H3250       H  0.36920037  0.36894504  0.11467544     0.11300
H3251       H  0.43725425  0.32536661  0.13463131     0.11100
H3252       H  0.46397194  0.32436825  0.11434172     0.07600
C3253       C  0.62160438  0.35800152  0.14018117    -0.11500
C3254       C  0.59817666  0.34004102  0.14194225     0.05700
C3255       C  0.57533333  0.34195144  0.13308134    -0.10300
C3256       C  0.57756369  0.35854269  0.12176931    -0.11900
C3257       C  0.60224940  0.37412654  0.11942968    -0.01700
C3258       C  0.62345800  0.37514019  0.12906791    -0.10800
C3259       C  0.60049355  0.31584802  0.15112386     0.05700
H3260       H  0.55660883  0.32910844  0.13438620     0.07600
H3261       H  0.56062532  0.35816385  0.11455014     0.11100
H3262       H  0.64258882  0.38724386  0.12745420     0.11300
H3263       H  0.63975746  0.35703605  0.14668043     0.07600
C3264       C  0.59099198  0.28904287  0.14702455    -0.11500
C3265       C  0.60028120  0.26482997  0.15345988    -0.10800
C3266       C  0.61968919  0.26704152  0.16384260    -0.01700
C3267       C  0.62704032  0.29366592  0.16880822    -0.11900
C3268       C  0.61704771  0.31796256  0.16264134    -0.10300
H3269       H  0.57848891  0.28641639  0.13814180     0.07600
H3270       H  0.59428783  0.24437155  0.14958210     0.11300
H3271       H  0.64157500  0.29562243  0.17704593     0.11100
H3272       H  0.62397536  0.33829926  0.16630868     0.07600
C3273       C  0.75962966  0.74618537  0.23232885    -0.11500
C3274       C  0.77785650  0.75458285  0.24272340     0.05700
C3275       C  0.80109974  0.73718719  0.24558969    -0.10300
C3276       C  0.80633866  0.71278835  0.23822636    -0.11900
C3277       C  0.78906924  0.70509328  0.22742657    -0.01700
C3278       C  0.76531802  0.72191881  0.22469156    -0.10800
C3279       C  0.77272711  0.78108569  0.25060547     0.05700
H3280       H  0.81599196  0.74275840  0.25328685     0.07600
H3281       H  0.82494122  0.70057478  0.24070294     0.11100
H3282       H  0.75159844  0.71680835  0.21645164     0.11300
H3283       H  0.74100735  0.75844820  0.22998889     0.07600
C3284       C  0.75902791  0.80454743  0.24493938    -0.11500
C3285       C  0.75125488  0.82784451  0.25271752    -0.10800
C3286       C  0.75774695  0.82872655  0.26627014    -0.01700
C3287       C  0.77367465  0.80662189  0.27169717    -0.11900
C3288       C  0.78076130  0.78296939  0.26403629    -0.10300
H3289       H  0.75333287  0.80455543  0.23457625     0.07600
H3290       H  0.73872197  0.84448110  0.24831281     0.11300
H3291       H  0.77827084  0.80633399  0.28219753     0.11100
H3292       H  0.79101486  0.76548724  0.26894155     0.07600
C3293       C  0.78306570  0.54185888  0.23698689    -0.11500
C3294       C  0.80579777  0.52557966  0.24165958     0.05700
C3295       C  0.83033033  0.52357410  0.23392340    -0.10300
C3296       C  0.83295136  0.53886804  0.22223491    -0.11900
C3297       C  0.81119724  0.55696610  0.21796026    -0.01700
C3298       C  0.78581362  0.55762568  0.22526983    -0.10800
C3299       C  0.80556561  0.51233261  0.25497168     0.05700
H3300       H  0.84799531  0.51079964  0.23718237     0.07600
H3301       H  0.85279243  0.53754783  0.21692697     0.11100
H3302       H  0.76862104  0.57128436  0.22228759     0.11300
H3303       H  0.76386231  0.54360970  0.24275845     0.07600
C3304       C  0.82856755  0.51695936  0.26346448    -0.11500
C3305       C  0.83129353  0.50176712  0.27517658    -0.10800
C3306       C  0.81125032  0.48112218  0.27869720    -0.01700
C3307       C  0.78704488  0.47794674  0.27068233    -0.11900
C3308       C  0.78415160  0.49358317  0.25893381    -0.10300
H3309       H  0.84509501  0.53171099  0.26077559     0.07600
H3310       H  0.85007975  0.50519694  0.28109470     0.11300
H3311       H  0.77113220  0.46236119  0.27310072     0.11100
H3312       H  0.76608677  0.48982752  0.25258525     0.07600
C3313       C  0.98077589  0.76220933  0.21375155    -0.11500
C3314       C  0.00753375  0.75378941  0.20893845     0.05700
C3315       C  0.00910210  0.72780604  0.20217464    -0.10300
C3316       C  0.98462950  0.71169212  0.19965177    -0.11900
C3317       C  0.95777913  0.72061130  0.20405923    -0.01700
C3318       C  0.95634621  0.74570992  0.21148653    -0.10800
C3319       C  0.03315552  0.77285751  0.20998963     0.05700
H3320       H  0.02909808  0.72057553  0.19821114     0.07600
H3321       H  0.98659496  0.69251410  0.19387918     0.11100
H3322       H  0.93607833  0.75339306  0.21492936     0.11300
H3323       H  0.97862123  0.78191963  0.21908294     0.07600
C3324       C  0.03074095  0.80198996  0.20750650    -0.11500
C3325       C  0.05484291  0.81934662  0.20671434    -0.10800
C3326       C  0.08226081  0.80841574  0.20865768    -0.01700
C3327       C  0.08467764  0.77968218  0.21197086    -0.11900
C3328       C  0.06051720  0.76210161  0.21249200    -0.10300
H3329       H  0.01026393  0.81116577  0.20541432     0.07600
H3330       H  0.05211601  0.84127851  0.20400642     0.11300
H3331       H  0.10539383  0.77039333  0.21331160     0.11100
H3332       H  0.06333135  0.73987118  0.21454090     0.07600
C3333       C  0.98417487  0.69103803  0.09612634    -0.11500
C3334       C  0.95849974  0.67770686  0.09284829     0.05700
C3335       C  0.95757613  0.65957385  0.08184664    -0.10300
C3336       C  0.98255111  0.65144489  0.07564744    -0.11900
C3337       C  0.00852225  0.66204235  0.08014178    -0.01700
C3338       C  0.00904680  0.68338584  0.08971462    -0.10800
C3339       C  0.93523564  0.67754978  0.10259831     0.05700
H3340       H  0.93794148  0.64970386  0.07883106     0.07600
H3341       H  0.98178796  0.63541913  0.06799611     0.11100
H3342       H  0.02894370  0.69193589  0.09322415     0.11300
H3343       H  0.98573476  0.70505298  0.10455878     0.07600
C3344       C  0.92183207  0.65183888  0.10565463    -0.11500
C3345       C  0.90547177  0.64933704  0.11701963    -0.10800
C3346       C  0.90267641  0.67230581  0.12562088    -0.01700
C3347       C  0.91435074  0.69849644  0.12219706    -0.11900
C3348       C  0.93017155  0.70121922  0.11064103    -0.10300
H3349       H  0.92572085  0.63298568  0.09987622     0.07600
H3350       H  0.89673191  0.62892665  0.11957439     0.11300
H3351       H  0.91202249  0.71656275  0.12868931     0.11100
H3352       H  0.93982354  0.72138053  0.10842047     0.07600
C3353       C  0.92349632  0.80666678  0.14964126    -0.11500
C3354       C  0.90771864  0.83060274  0.15337508     0.05700
C3355       C  0.88741466  0.82812616  0.16341910    -0.10300
C3356       C  0.88021963  0.80162365  0.16822328    -0.11900
C3357       C  0.89380833  0.77749178  0.16329773    -0.01700
C3358       C  0.91666204  0.78027575  0.15464307    -0.10800
C3359       C  0.90761762  0.85534204  0.14457647     0.05700
H3360       H  0.87550269  0.84630779  0.16674866     0.07600
H3361       H  0.86306073  0.79983628  0.17526970     0.11100
H3362       H  0.92759895  0.76186370  0.15086456     0.11300
H3363       H  0.93915979  0.80764210  0.14185635     0.07600
C3364       C  0.93215779  0.86236870  0.13751176    -0.11500
C3365       C  0.92998251  0.87681127  0.12562631    -0.10800
C3366       C  0.90344441  0.88549119  0.12104071    -0.01700
C3367       C  0.87953054  0.88233620  0.12900649    -0.11900
C3368       C  0.88152236  0.86706280  0.14069386    -0.10300
H3369       H  0.95264830  0.85447904  0.14053225     0.07600
H3370       H  0.94882499  0.88015716  0.11973499     0.11300
H3371       H  0.85900511  0.88955745  0.12566125     0.11100
H3372       H  0.86212729  0.86210002  0.14586914     0.07600
C3373       C  0.71204643  0.59803440  0.13436851    -0.11500
C3374       C  0.71832544  0.57056898  0.12968369     0.05700
C3375       C  0.73814340  0.55482380  0.13705927    -0.10300
C3376       C  0.75247441  0.56654280  0.14800026    -0.11900
C3377       C  0.74747348  0.59442648  0.15223749    -0.01700
C3378       C  0.72659016  0.60984400  0.14537198    -0.10800
C3379       C  0.70539646  0.55836520  0.11705255     0.05700
H3380       H  0.74330147  0.53345349  0.13414769     0.07600
H3381       H  0.76896447  0.55425574  0.15269167     0.11100
H3382       H  0.72292439  0.63174307  0.14791689     0.11300
H3383       H  0.69706639  0.61106147  0.12907130     0.07600
C3384       C  0.67693867  0.56318023  0.11340279    -0.11500
C3385       C  0.66450896  0.54893584  0.10248457    -0.10800
C3386       C  0.68022627  0.52997027  0.09459304    -0.01700
C3387       C  0.70895530  0.52637954  0.09782601    -0.11900
C3388       C  0.72131835  0.54038858  0.10872927    -0.10300
H3389       H  0.66372649  0.57664175  0.11945917     0.07600
H3390       H  0.64204742  0.55135105  0.10073523     0.11300
H3391       H  0.72153493  0.51119912  0.09238471     0.11100
H3392       H  0.74337136  0.53636065  0.11087191     0.07600
C3393       C  0.76514286  0.29672446  0.74658974    -0.11500
C3394       C  0.77786769  0.27274095  0.74087677     0.05700
C3395       C  0.78490032  0.27384916  0.72731216    -0.10300
C3396       C  0.77729744  0.29716793  0.71953777    -0.11900
C3397       C  0.76212819  0.31970163  0.72507932    -0.01700
C3398       C  0.75703132  0.31968795  0.73876008    -0.10800
C3399       C  0.78236719  0.24636172  0.74885295     0.05700
H3400       H  0.79455973  0.25595600  0.72243577     0.07600
H3401       H  0.78088533  0.29633450  0.70896240     0.11100
H3402       H  0.74513421  0.33672014  0.74325417     0.11300
H3403       H  0.76031870  0.29735275  0.75704596     0.07600
C3404       C  0.76391090  0.23909685  0.75929340    -0.11500
C3405       C  0.76866558  0.21499402  0.76705016    -0.10800
C3406       C  0.79181689  0.19723106  0.76450025    -0.01700
C3407       C  0.80940406  0.20370533  0.75367088    -0.11900
C3408       C  0.80490732  0.22793770  0.74605069    -0.10300
H3409       H  0.74578007  0.25212939  0.76158435     0.07600
H3410       H  0.75480735  0.21088635  0.77534961     0.11300
H3411       H  0.82762146  0.19071458  0.75143261     0.11100
H3412       H  0.81980836  0.23264762  0.73824552     0.07600
C3413       C  0.72711192  0.50418138  0.76372768    -0.11500
C3414       C  0.74325557  0.51435265  0.75311103     0.05700
C3415       C  0.75549900  0.54119536  0.75395406    -0.10300
C3416       C  0.75096258  0.55807233  0.76510779    -0.11900
C3417       C  0.73349403  0.54864370  0.77545793    -0.01700
C3418       C  0.72203212  0.52130836  0.77478157    -0.10800
C3419       C  0.74306401  0.49916478  0.74038927     0.05700
H3420       H  0.76749847  0.54955245  0.74572060     0.07600
H3421       H  0.75962716  0.57922953  0.76524345     0.11100
H3422       H  0.70836197  0.51361041  0.78257322     0.11300
H3423       H  0.71710436  0.48365532  0.76310691     0.07600
C3424       C  0.76022497  0.47548638  0.73816998    -0.11500
C3425       C  0.75701995  0.45951055  0.72655943    -0.10800
C3426       C  0.73628131  0.46686422  0.71717952    -0.01700
C3427       C  0.72040941  0.49160321  0.71918556    -0.11900
C3428       C  0.72378016  0.50754702  0.73066637    -0.10300
H3429       H  0.77527795  0.46883216  0.74560966     0.07600
H3430       H  0.76938200  0.44044889  0.72535980     0.11300
H3431       H  0.70426433  0.49787931  0.71218245     0.11100
H3432       H  0.71037565  0.52577525  0.73225499     0.07600
C3433       C  0.00818475  0.51648535  0.51837567    -0.11500
C3434       C  0.01164306  0.52393073  0.50493676     0.05700
C3435       C  0.98825179  0.53605676  0.49842517    -0.10300
C3436       C  0.96297453  0.54170466  0.50520191    -0.11900
C3437       C  0.95991769  0.53502675  0.51868252    -0.01700
C3438       C  0.98264029  0.52170769  0.52509437    -0.10800
C3439       C  0.03888827  0.51817503  0.49757898     0.05700
H3440       H  0.98935664  0.54137067  0.48803979     0.07600
H3441       H  0.94599988  0.55219241  0.49996130     0.11100
H3442       H  0.98133925  0.51692980  0.53554448     0.11300
H3443       H  0.02551172  0.50746209  0.52391829     0.07600
C3444       C  0.05603540  0.49499347  0.50095451    -0.11500
C3445       C  0.07891529  0.48696708  0.49297429    -0.10800
C3446       C  0.08544656  0.50164852  0.48125846    -0.01700
C3447       C  0.07007537  0.52633783  0.47848714    -0.11900
C3448       C  0.04720749  0.53454878  0.48655823    -0.10300
H3449       H  0.05077676  0.48168588  0.50927113     0.07600
H3450       H  0.09027136  0.46788106  0.49549792     0.11300
H3451       H  0.07433725  0.53817321  0.46955619     0.11100
H3452       H  0.03540783  0.55319374  0.48381870     0.07600
C3453       C  0.79376800  0.53403862  0.50866247    -0.11500
C3454       C  0.77338564  0.55450717  0.50551218     0.05700
C3455       C  0.76891006  0.57695743  0.51429629    -0.10300
C3456       C  0.78550171  0.57988209  0.52565049    -0.11900
C3457       C  0.80743661  0.56065310  0.52843828    -0.01700
C3458       C  0.81074188  0.53711783  0.52002091    -0.10800
C3459       C  0.75853151  0.55452722  0.49258558     0.05700
H3460       H  0.75320720  0.59290533  0.51208075     0.07600
H3461       H  0.78210422  0.59821502  0.53185819     0.11100
H3462       H  0.82747645  0.52199744  0.52177187     0.11300
H3463       H  0.79757533  0.51656704  0.50197873     0.07600
C3464       C  0.76442829  0.57597530  0.48345918    -0.11500
C3465       C  0.74811702  0.57898180  0.47201395    -0.10800
C3466       C  0.72522754  0.56074521  0.46944571    -0.01700
C3467       C  0.72019678  0.53837949  0.47831994    -0.11900
C3468       C  0.73676492  0.53527463  0.48978113    -0.10300
H3469       H  0.78112554  0.59106339  0.48544403     0.07600
H3470       H  0.75268378  0.59646732  0.46547482     0.11300
H3471       H  0.70254849  0.52418253  0.47678466     0.11100
H3472       H  0.73171537  0.51873317  0.49676573     0.07600
C3473       C  0.84252573  0.46270762  0.60613799    -0.11500
C3474       C  0.82796849  0.47459480  0.61716134     0.05700
C3475       C  0.82473464  0.50412677  0.61704230    -0.10300
C3476       C  0.83617490  0.52097542  0.60689770    -0.11900
C3477       C  0.85158637  0.50954006  0.59613135    -0.01700
C3478       C  0.85413514  0.47983234  0.59583088    -0.10800
C3479       C  0.81547582  0.45697742  0.62855560     0.05700
H3480       H  0.81303728  0.51458832  0.62482339     0.07600
H3481       H  0.83312600  0.54356816  0.60763868     0.11100
H3482       H  0.86591523  0.46987490  0.58792116     0.11300
H3483       H  0.84569651  0.44013208  0.60560757     0.07600
C3484       C  0.80555632  0.42921660  0.62654088    -0.11500
C3485       C  0.79109804  0.41429031  0.63659459    -0.10800
C3486       C  0.78610724  0.42604553  0.64925785    -0.01700
C3487       C  0.79727803  0.45314602  0.65161964    -0.11900
C3488       C  0.81171591  0.46823270  0.64150546    -0.10300
H3489       H  0.80753717  0.41938141  0.61692305     0.07600
H3490       H  0.78243879  0.39373215  0.63421678     0.11300
H3491       H  0.79345553  0.46339617  0.66103133     0.11100
H3492       H  0.81939376  0.48916133  0.64382928     0.07600
C3493       C  0.79013118  0.79377689  0.74991984    -0.11500
C3494       C  0.77624274  0.77112037  0.74361938     0.05700
C3495       C  0.76799612  0.77466283  0.73030472    -0.10300
C3496       C  0.77372176  0.79973523  0.72350075    -0.11900
C3497       C  0.78855991  0.82177719  0.72965375    -0.01700
C3498       C  0.79648672  0.81862019  0.74298225    -0.10800
C3499       C  0.76967730  0.74424862  0.75088984     0.05700
H3500       H  0.75793428  0.75768492  0.72490217     0.07600
H3501       H  0.76827417  0.80107260  0.71311163     0.11100
H3502       H  0.80840405  0.83508087  0.74791989     0.11300
H3503       H  0.79635231  0.79230377  0.76019431     0.07600
C3504       C  0.78706464  0.73396904  0.76119120    -0.11500
C3505       C  0.77925091  0.70991611  0.76852181    -0.10800
C3506       C  0.75411286  0.69530117  0.76558040    -0.01700
C3507       C  0.73779051  0.70470576  0.75479760    -0.11900
C3508       C  0.74516998  0.72886924  0.74774174    -0.10300
H3509       H  0.80650050  0.74472907  0.76375430     0.07600
H3510       H  0.79237096  0.70335462  0.77673664     0.11300
H3511       H  0.71826472  0.69418965  0.75213776     0.11100
H3512       H  0.73081881  0.73603005  0.74012400     0.07600
C3513       C  0.78570506  0.97240581  0.74642972    -0.11500
C3514       C  0.79000064  0.00165395  0.74505804     0.05700
C3515       C  0.79518926  0.01259841  0.73238587    -0.10300
C3516       C  0.79798410  0.99456977  0.72149956    -0.11900
C3517       C  0.79502573  0.96526823  0.72297423    -0.01700
C3518       C  0.78791929  0.95438294  0.73544247    -0.10800
C3519       C  0.79228144  0.02042644  0.75684143     0.05700
H3520       H  0.79903615  0.03493756  0.73104943     0.07600
H3521       H  0.80418320  0.00334503  0.71204787     0.11100
H3522       H  0.78636959  0.93179378  0.73689290     0.11300
H3523       H  0.78176103  0.96340343  0.75609041     0.07600
C3524       C  0.77932109  0.04714507  0.75702703    -0.11500
C3525       C  0.78465366  0.06623272  0.76737130    -0.10800
C3526       C  0.80355773  0.05919101  0.77758281    -0.01700
C3527       C  0.81567932  0.03208687  0.77761431    -0.11900
C3528       C  0.80991975  0.01285823  0.76743797    -0.10300
H3529       H  0.76563988  0.05351225  0.74897720     0.07600
H3530       H  0.77520367  0.08702525  0.76700108     0.11300
H3531       H  0.83034516  0.02604163  0.78533606     0.11100
H3532       H  0.82047663  0.99258356  0.76749648     0.07600
C3533       C  0.96232740  0.70629926  0.62456126    -0.11500
C3534       C  0.94264448  0.70642223  0.63495276     0.05700
C3535       C  0.92123674  0.68575465  0.63513401    -0.10300
C3536       C  0.91793745  0.66720715  0.62454728    -0.11900
C3537       C  0.93573096  0.66927302  0.61353490    -0.01700
C3538       C  0.95876944  0.68802072  0.61388587    -0.10800
C3539       C  0.94101731  0.73066879  0.64417424     0.05700
H3540       H  0.90550263  0.68532498  0.64289723     0.07600
H3541       H  0.90018745  0.65275483  0.62455765     0.11100
H3542       H  0.97330467  0.68946113  0.60563233     0.11300
H3543       H  0.97949142  0.72141859  0.62430669     0.07600
C3544       C  0.92995117  0.72709740  0.65696086    -0.11500
C3545       C  0.92031298  0.75033654  0.66410096    -0.10800
C3546       C  0.92264000  0.77747269  0.65876606    -0.01700
C3547       C  0.93657563  0.78149594  0.64672298    -0.11900
C3548       C  0.94549789  0.75821830  0.63939569    -0.10300
H3549       H  0.92694166  0.70622779  0.66105960     0.07600
H3550       H  0.90979563  0.74704894  0.67349112     0.11300
H3551       H  0.93830627  0.80239312  0.64246541     0.11100
H3552       H  0.95360391  0.76183564  0.62953487     0.07600
C3553       C  0.55380751  0.00328922  0.50895231    -0.11500
C3554       C  0.54543202  0.02357450  0.49952037     0.05700
C3555       C  0.56304161  0.04710908  0.49758023    -0.10300
C3556       C  0.58749814  0.05085743  0.50519524    -0.11900
C3557       C  0.59498436  0.03140117  0.51512165    -0.01700
C3558       C  0.57815237  0.00722081  0.51669376    -0.10800
C3559       C  0.51835187  0.02030330  0.49191514     0.05700
H3560       H  0.55740663  0.06332549  0.49053947     0.07600
H3561       H  0.59980405  0.06986899  0.50373135     0.11100
H3562       H  0.58312738  0.99187837  0.52426591     0.11300
H3563       H  0.54134122  0.98443638  0.51050865     0.07600
C3564       C  0.49479880  0.00710424  0.49773619    -0.11500
C3565       C  0.47045516  0.00142060  0.49033537    -0.10800
C3566       C  0.46867517  0.00913064  0.47693130    -0.01700
C3567       C  0.49125161  0.02419754  0.47132739    -0.11900
C3568       C  0.51585641  0.02962409  0.47871163    -0.10300
H3569       H  0.49534032  0.00050645  0.50797426     0.07600
H3570       H  0.45339296  0.98983264  0.49497420     0.11300
H3571       H  0.49073558  0.03001142  0.46097649     0.11100
H3572       H  0.53344337  0.03980514  0.47381717     0.07600
C3573       C  0.74289603  0.03073821  0.50443910    -0.11500
C3574       C  0.76922895  0.04462107  0.50495784     0.05700
C3575       C  0.77704295  0.05798769  0.51684959    -0.10300
C3576       C  0.75841731  0.05921751  0.52757867    -0.11900
C3577       C  0.73146724  0.04683366  0.52685068    -0.01700
C3578       C  0.72419729  0.03178668  0.51530310    -0.10800
C3579       C  0.78735470  0.04816264  0.49291937     0.05700
H3580       H  0.79729789  0.06851936  0.51767928     0.07600
H3581       H  0.76469452  0.07089686  0.53632161     0.11100
H3582       H  0.70340121  0.02241566  0.51435568     0.11300
H3583       H  0.73612253  0.02048244  0.49539655     0.07600
C3584       C  0.79393588  0.02567689  0.48428020    -0.11500
C3585       C  0.81145714  0.03004727  0.47313609    -0.10800
C3586       C  0.82209395  0.05713869  0.47027411    -0.01700
C3587       C  0.81522751  0.07938920  0.47894976    -0.11900
C3588       C  0.79829702  0.07497722  0.49003689    -0.10300
H3589       H  0.78587956  0.00472092  0.48625417     0.07600
H3590       H  0.81638360  0.01241596  0.46671435     0.11300
H3591       H  0.82316232  0.10051340  0.47725039     0.11100
H3592       H  0.79344087  0.09285428  0.49632675     0.07600
C3593       C  0.64423293  0.16654861  0.63820671    -0.11500
C3594       C  0.61791211  0.17827291  0.64167280     0.05700
C3595       C  0.59372428  0.17076974  0.63444471    -0.10300
C3596       C  0.59631661  0.15428252  0.62310090    -0.11900
C3597       C  0.62300038  0.14467401  0.61907392    -0.01700
C3598       C  0.64671883  0.14968596  0.62698590    -0.10800
C3599       C  0.61724307  0.20263896  0.65070825     0.05700
H3600       H  0.57321658  0.17931504  0.63703362     0.07600
H3601       H  0.57772887  0.15004933  0.61714691     0.11100
H3602       H  0.66743328  0.14236421  0.62395269     0.11300
H3603       H  0.66331737  0.17235493  0.64347557     0.07600
C3604       C  0.63471725  0.20311562  0.66190840    -0.11500
C3605       C  0.64173052  0.22873782  0.66778503    -0.10800
C3606       C  0.63094649  0.25404816  0.66266613    -0.01700
C3607       C  0.61091119  0.25333725  0.65249278    -0.11900
C3608       C  0.60413755  0.22771918  0.64650189    -0.10300
H3609       H  0.64474794  0.18399300  0.66541171     0.07600
H3610       H  0.65694541  0.22896948  0.67580173     0.11300
H3611       H  0.60249602  0.27271322  0.64840863     0.11100
H3612       H  0.59084793  0.22799005  0.63777822     0.07600
C3613       C  0.72544063  0.98089510  0.61263476    -0.11500
C3614       C  0.71218959  0.95592008  0.61682636     0.05700
C3615       C  0.69043868  0.94494599  0.60864328    -0.10300
C3616       C  0.68072082  0.96001446  0.59733167    -0.11900
C3617       C  0.69307867  0.98602252  0.59371474    -0.01700
C3618       C  0.71625189  0.99542739  0.60134123    -0.10800
C3619       C  0.72121271  0.94251315  0.62981318     0.05700
H3620       H  0.67983160  0.92560068  0.61142188     0.07600
H3621       H  0.66239407  0.95232605  0.59200876     0.11100
H3622       H  0.72614790  0.01546531  0.59907231     0.11300
H3623       H  0.74265194  0.98977501  0.61835759     0.07600
C3624       C  0.72736384  0.91351947  0.63082860    -0.11500
C3625       C  0.74077906  0.90246793  0.64221772    -0.10800
C3626       C  0.74787010  0.91978769  0.65312718    -0.01700
C3627       C  0.73974261  0.94830760  0.65249738    -0.11900
C3628       C  0.72662118  0.95943353  0.64107889    -0.10300
H3629       H  0.72377547  0.89975444  0.62243475     0.07600
H3630       H  0.74766215  0.88067696  0.64207959     0.11300
H3631       H  0.74568957  0.96259474  0.66039703     0.11100
H3632       H  0.72196702  0.98179192  0.64080878     0.07600
C3633       C  0.27895528  0.73186908  0.73486692    -0.11500
C3634       C  0.26021444  0.74007380  0.74502324     0.05700
C3635       C  0.23684006  0.72260819  0.74765001    -0.10300
C3636       C  0.23166498  0.69847675  0.73995760    -0.11900
C3637       C  0.24961172  0.69113004  0.72935221    -0.01700
C3638       C  0.27374170  0.70775804  0.72715151    -0.10800
C3639       C  0.26503761  0.76681127  0.75268906     0.05700
H3640       H  0.22185713  0.72816622  0.75531531     0.07600
H3641       H  0.21273881  0.68632010  0.74192800     0.11100
H3642       H  0.28792681  0.70293085  0.71905447     0.11300
H3643       H  0.29758681  0.74432602  0.73273991     0.07600
C3644       C  0.27640438  0.79076699  0.74642978    -0.11500
C3645       C  0.28366446  0.81484121  0.75372911    -0.10800
C3646       C  0.27934456  0.81594306  0.76747638    -0.01700
C3647       C  0.26635708  0.79278223  0.77366554    -0.11900
C3648       C  0.25932372  0.76847447  0.76636278    -0.10300
H3649       H  0.28038584  0.79069717  0.73588742     0.07600
H3650       H  0.29379835  0.83226720  0.74868520     0.11300
H3651       H  0.26342873  0.79267944  0.78428943     0.11100
H3652       H  0.25075893  0.75046795  0.77157031     0.07600
C3653       C  0.26011317  0.53715544  0.73552715    -0.11500
C3654       C  0.23698916  0.52313356  0.74135095     0.05700
C3655       C  0.21055351  0.52490868  0.73511625    -0.10300
C3656       C  0.20680811  0.54127325  0.72379640    -0.11900
C3657       C  0.22931036  0.55691566  0.71832681    -0.01700
C3658       C  0.25626178  0.55412563  0.72418163    -0.10800
C3659       C  0.23919370  0.50732995  0.75409606     0.05700
H3660       H  0.19246016  0.51388501  0.73917219     0.07600
H3661       H  0.18573848  0.54242334  0.71963758     0.11100
H3662       H  0.27413154  0.56565091  0.72024360     0.11300
H3663       H  0.28082838  0.53592819  0.74005309     0.07600
C3664       C  0.25876545  0.48529967  0.75589483    -0.11500
C3665       C  0.25643988  0.46697692  0.76682085    -0.10800
C3666       C  0.23451281  0.47042623  0.77611983    -0.01700
C3667       C  0.21672972  0.49409542  0.77488348    -0.11900
C3668       C  0.21902426  0.51220886  0.76404422    -0.10300
H3669       H  0.27460712  0.48110565  0.74841885     0.07600
H3670       H  0.27054771  0.44905138  0.76748523     0.11300
H3671       H  0.19993733  0.49782266  0.78195848     0.11100
H3672       H  0.20401813  0.52935021  0.76308452     0.07600
C3673       C  0.06186667  0.76276315  0.71323858    -0.11500
C3674       C  0.03577057  0.75591278  0.70723646     0.05700
C3675       C  0.03445423  0.73145064  0.69940035    -0.10300
C3676       C  0.05859633  0.71493532  0.69719939    -0.11900
C3677       C  0.08491263  0.72200214  0.70290994    -0.01700
C3678       C  0.08607791  0.74580644  0.71123293    -0.10800
C3679       C  0.01041018  0.77492074  0.70821880     0.05700
H3680       H  0.01493098  0.72572724  0.69446950     0.07600
H3681       H  0.05682021  0.69690312  0.69064866     0.11100
H3682       H  0.10598594  0.75213173  0.71562456     0.11300
H3683       H  0.06363100  0.78151375  0.71931721     0.07600
C3684       C  0.98314942  0.76393208  0.71062283    -0.11500
C3685       C  0.95893828  0.78121006  0.70980763    -0.10800
C3686       C  0.96132758  0.80979047  0.70626517    -0.01700
C3687       C  0.98867507  0.82094646  0.70435094    -0.11900
C3688       C  0.01284532  0.80387252  0.70545809    -0.10300
H3689       H  0.98051644  0.74172167  0.71278700     0.07600
H3690       H  0.93826471  0.77182109  0.71116632     0.11300
H3691       H  0.99131892  0.84282486  0.70152838     0.11100
H3692       H  0.03337645  0.81301305  0.70342240     0.07600
C3693       C  0.06269638  0.69037688  0.58748947    -0.11500
C3694       C  0.08413838  0.67067050  0.59037101     0.05700
C3695       C  0.08160996  0.64319648  0.58524916    -0.10300
C3696       C  0.05699642  0.63468174  0.57889331    -0.11900
C3697       C  0.03408538  0.65327759  0.57757386    -0.01700
C3698       C  0.03772356  0.68168119  0.58124629    -0.10800
C3699       C  0.10526017  0.67606715  0.60098083     0.05700
H3700       H  0.09736437  0.62721801  0.58722694     0.07600
H3701       H  0.05525227  0.61280463  0.57589235     0.11100
H3702       H  0.02070992  0.69675033  0.58005457     0.11300
H3703       H  0.06431209  0.71199648  0.59088333     0.36400
C3704       C  0.13059686  0.66045742  0.60151952    -0.11500
C3705       C  0.14488805  0.65704399  0.61350083    -0.10800
C3706       C  0.13450780  0.66986926  0.62503682    -0.01700
C3707       C  0.11163999  0.68865629  0.62405807    -0.11900
C3708       C  0.09713324  0.69168427  0.61218278    -0.10300
H3709       H  0.13823780  0.64915695  0.59292204     0.07600
H3710       H  0.16316674  0.64330408  0.61383781     0.11300
H3711       H  0.10383405  0.69986829  0.63265873     0.11100
H3712       H  0.07800109  0.70417932  0.61224795     0.07600
C3713       C  0.48413430  0.48574338  0.49569424    -0.11500
C3714       C  0.49984596  0.50948812  0.49963214     0.05700
C3715       C  0.49087151  0.52446368  0.51094852    -0.10300
C3716       C  0.46747841  0.51525835  0.51837875    -0.11900
C3717       C  0.45250581  0.49082091  0.51468686    -0.01700
C3718       C  0.46087610  0.47660195  0.50307200    -0.10800
C3719       C  0.52580446  0.51791603  0.49210926     0.05700
H3720       H  0.50220978  0.54307890  0.51419322     0.07600
H3721       H  0.46205269  0.52643766  0.52737701     0.11100
H3722       H  0.45021955  0.45746670  0.49997183     0.11300
H3723       H  0.49050838  0.47340160  0.48718230     0.07600
C3724       C  0.52680220  0.51536199  0.47822931    -0.11500
C3725       C  0.55111667  0.52297769  0.47116359    -0.10800
C3726       C  0.57496529  0.53371645  0.47774875    -0.01700
C3727       C  0.57414787  0.53621769  0.49159381    -0.11900
C3728       C  0.54999605  0.52811823  0.49870461    -0.10300
H3729       H  0.50847575  0.50816985  0.47275834     0.07600
H3730       H  0.55071860  0.52187340  0.46046493     0.11300
H3731       H  0.59204999  0.54495134  0.49688941     0.11100
H3732       H  0.55024580  0.52996329  0.50937645     0.07600
C3733       C  0.26763492  0.46412141  0.51290107    -0.11500
C3734       C  0.27690040  0.48067716  0.50226634     0.05700
C3735       C  0.30388627  0.49306730  0.50290433    -0.10300
C3736       C  0.32144381  0.48862028  0.51393794    -0.11900
C3737       C  0.31262056  0.47102255  0.52434854    -0.01700
C3738       C  0.28536707  0.45911932  0.52374677    -0.10800
C3739       C  0.25931305  0.48258091  0.49011179     0.05700
H3740       H  0.31157722  0.50565597  0.49473418     0.07600
H3741       H  0.34248096  0.49766197  0.51399040     0.11100
H3742       H  0.27803276  0.44526955  0.53153427     0.11300
H3743       H  0.24708078  0.45405027  0.51254157     0.07600
C3744       C  0.26744843  0.46777171  0.47872067    -0.11500
C3745       C  0.24922207  0.46587605  0.46783627    -0.10800
C3746       C  0.22251830  0.47910302  0.46796951    -0.01700
C3747       C  0.21500862  0.49519896  0.47914019    -0.11900
C3748       C  0.23312218  0.49663107  0.49017513    -0.10300
H3749       H  0.28737561  0.45651238  0.47849572     0.07600
H3750       H  0.25565404  0.45316269  0.45944626     0.11300
H3751       H  0.19448997  0.50526949  0.47965955     0.11100
H3752       H  0.22636139  0.50800615  0.49891792     0.07600
C3753       C  0.52146212  0.29544177  0.53482443    -0.11500
C3754       C  0.51055531  0.26801579  0.53688068     0.05700
C3755       C  0.48141728  0.26554225  0.53952976    -0.10300
C3756       C  0.46421807  0.28962104  0.54086699    -0.11900
C3757       C  0.47533906  0.31701010  0.53928089    -0.01700
C3758       C  0.50407134  0.31954902  0.53591065    -0.10800
C3759       C  0.52971407  0.24248404  0.53750785     0.05700
H3760       H  0.47215147  0.24501992  0.54133815     0.07600
H3761       H  0.44227622  0.28686955  0.54365500     0.11100
H3762       H  0.51349189  0.34026278  0.53489931     0.11300
H3763       H  0.54369954  0.29834715  0.53268835     0.07600
C3764       C  0.52116350  0.21569622  0.53276945    -0.11500
C3765       C  0.53815744  0.19148846  0.53469525    -0.10800
C3766       C  0.56392966  0.19332324  0.54161810    -0.01700
C3767       C  0.57279127  0.22017103  0.54596143    -0.11900
C3768       C  0.55617346  0.24430232  0.54383958    -0.10300
H3769       H  0.50104498  0.21334613  0.52777542     0.07600
H3770       H  0.53045205  0.17114694  0.53138190     0.11300
H3771       H  0.59239451  0.22239686  0.55141226     0.11100
H3772       H  0.56349411  0.26424866  0.54779741     0.07600
C3773       C  0.54945360  0.33216141  0.59220534    -0.11500
C3774       C  0.57214165  0.35086410  0.59436294     0.05700
C3775       C  0.57178000  0.37730762  0.58812826    -0.10300
C3776       C  0.54776546  0.38632639  0.58150140    -0.11900
C3777       C  0.52351492  0.36926337  0.58111961    -0.01700
C3778       C  0.52512232  0.34140160  0.58571234    -0.10800
C3779       C  0.59234024  0.34611976  0.60531591     0.05700
H3780       H  0.58874590  0.39236044  0.58948649     0.07600
H3781       H  0.54749878  0.40761818  0.57762799     0.11100
H3782       H  0.50696681  0.32750442  0.58519909     0.11300
H3783       H  0.54954451  0.31124628  0.59648869     0.07600
C3784       C  0.58244049  0.33412511  0.61714067    -0.11500
C3785       C  0.59775191  0.33714309  0.62877553    -0.10800
C3786       C  0.62320951  0.35236083  0.62887404    -0.01700
C3787       C  0.63451316  0.36203524  0.61688151    -0.11900
C3788       C  0.61928379  0.35873289  0.60516502    -0.10300
H3789       H  0.56175573  0.32444343  0.61774041     0.07600
H3790       H  0.58887061  0.32872509  0.63782000     0.11300
H3791       H  0.65443192  0.37330756  0.61663013     0.11100
H3792       H  0.62784170  0.36756506  0.59614835     0.07600
C3793       C  0.36270721  0.54541273  0.61689211    -0.11500
C3794       C  0.33740563  0.56060852  0.61538587     0.05700
C3795       C  0.32461956  0.56012273  0.60267015    -0.10300
C3796       C  0.33595927  0.54373800  0.59213490    -0.11900
C3797       C  0.36069716  0.52765376  0.59393329    -0.01700
C3798       C  0.37405657  0.52940777  0.60642378    -0.10800
C3799       C  0.32416994  0.57603188  0.62708853     0.05700
H3800       H  0.30499434  0.57132424  0.60102639     0.07600
H3801       H  0.32449024  0.54237454  0.58288575     0.11100
H3802       H  0.39293057  0.51711286  0.60831466     0.11300
H3803       H  0.37362093  0.54545170  0.62630554     0.07600
C3804       C  0.32428611  0.56468338  0.64008323    -0.11500
C3805       C  0.30958506  0.57797809  0.65066636    -0.10800
C3806       C  0.29470859  0.60332733  0.64863226    -0.01700
C3807       C  0.29634733  0.61543275  0.63585715    -0.11900
C3808       C  0.31049593  0.60205902  0.62533485    -0.10300
H3809       H  0.33447913  0.54463951  0.64193711     0.07600
H3810       H  0.30836505  0.56749653  0.66015123     0.11300
H3811       H  0.28510080  0.63483108  0.63376929     0.11100
H3812       H  0.31023241  0.61197027  0.61569766     0.07600
C3813       C  0.24205033  0.29965672  0.74521512    -0.11500
C3814       C  0.26651829  0.28348052  0.74744358     0.05700
C3815       C  0.28586653  0.29316165  0.75709066    -0.10300
C3816       C  0.28011765  0.31722893  0.76477494    -0.11900
C3817       C  0.25500400  0.33254782  0.76293578    -0.01700
C3818       C  0.23647709  0.32384210  0.75278025    -0.10800
C3819       C  0.27141977  0.25625441  0.74010450     0.05700
H3820       H  0.30535953  0.28186198  0.75889710     0.07600
H3821       H  0.29481361  0.32313536  0.77251679     0.11100
H3822       H  0.21679727  0.33492976  0.75108654     0.11300
H3823       H  0.22646749  0.29301530  0.73801209     0.07600
C3824       C  0.26237697  0.25246657  0.72690175    -0.11500
C3825       C  0.26821387  0.22731896  0.71999137    -0.10800
C3826       C  0.28342860  0.20538923  0.72605569    -0.01700
C3827       C  0.29147992  0.20874676  0.73936420    -0.11900
C3828       C  0.28537871  0.23361848  0.74629846    -0.10300
H3829       H  0.25178325  0.26934662  0.72168909     0.07600
H3830       H  0.26231298  0.22573591  0.70966462     0.11300
H3831       H  0.30336471  0.19236029  0.74433305     0.11100
H3832       H  0.29195643  0.23514836  0.75652693     0.07600
C3833       C  0.30623186  0.01357509  0.76626087    -0.11500
C3834       C  0.28929087  0.00479548  0.75560995     0.05700
C3835       C  0.27614899  0.97824478  0.75618315    -0.10300
C3836       C  0.28120846  0.96010419  0.76684368    -0.11900
C3837       C  0.30004837  0.96795313  0.77696835    -0.01700
C3838       C  0.31180192  0.99521944  0.77677145    -0.10800
C3839       C  0.28873293  0.02153954  0.74323313     0.05700
H3840       H  0.26299224  0.97106399  0.74807555     0.07600
H3841       H  0.27202016  0.93917132  0.76665711     0.11100
H3842       H  0.32639549  0.00184690  0.78443271     0.11300
H3843       H  0.31675115  0.03387268  0.76600193     0.07600
C3844       C  0.28200248  0.05039905  0.74336297    -0.11500
C3845       C  0.28505940  0.06664280  0.73187190    -0.10800
C3846       C  0.29568856  0.05446555  0.72017873    -0.01700
C3847       C  0.30172750  0.02548222  0.72000136    -0.11900
C3848       C  0.29789360  0.00911416  0.73135752    -0.10300
H3849       H  0.27514788  0.06047988  0.75243545     0.07600
H3850       H  0.28087322  0.08909104  0.73236222     0.11300
H3851       H  0.31035189  0.01570118  0.71119383     0.11100
H3852       H  0.30362996  0.98699939  0.73107270     0.07600
C3853       C  0.50796564  0.22000379  0.70267809    -0.11500
C3854       C  0.50607875  0.24708021  0.70834597     0.05700
C3855       C  0.47922356  0.25592024  0.71292197    -0.10300
C3856       C  0.45505930  0.23846954  0.71162561    -0.11900
C3857       C  0.45692112  0.21182589  0.70549650    -0.01700
C3858       C  0.48386355  0.20286755  0.70118589    -0.10800
C3859       C  0.53157763  0.26645974  0.70861596     0.05700
H3860       H  0.47680720  0.27658198  0.71736060     0.07600
H3861       H  0.43470980  0.24640550  0.71482640     0.11100
H3862       H  0.48620650  0.18268250  0.69626388     0.11300
H3863       H  0.52795473  0.21246453  0.69883457     0.07600
C3864       C  0.55906313  0.25639084  0.71150073    -0.11500
C3865       C  0.58305866  0.27413490  0.71050374    -0.10800
C3866       C  0.58033754  0.30233911  0.70635777    -0.01700
C3867       C  0.55282604  0.31253232  0.70387036    -0.11900
C3868       C  0.52891318  0.29505078  0.70509588    -0.10300
H3869       H  0.56209513  0.23455591  0.71428025     0.07600
H3870       H  0.60386564  0.26531657  0.71219411     0.11300
H3871       H  0.54989044  0.33396009  0.70042626     0.11100
H3872       H  0.50838170  0.30363169  0.70260573     0.07600
C3873       C  0.42997081  0.27908700  0.64276767    -0.11500
C3874       C  0.42355034  0.30597387  0.64784715     0.05700
C3875       C  0.41079877  0.30836229  0.66033857    -0.10300
C3876       C  0.40205442  0.28418138  0.66700784    -0.11900
C3877       C  0.40659509  0.25757624  0.66133295    -0.01700
C3878       C  0.42169557  0.25502965  0.64953027    -0.10800
C3879       C  0.42479043  0.33030864  0.63886835     0.05700
H3880       H  0.40587076  0.32887905  0.66446904     0.07600
H3881       H  0.39053588  0.28623773  0.67622069     0.11100
H3882       H  0.42497427  0.23454416  0.64500085     0.11300
H3883       H  0.43917369  0.27655947  0.63303185     0.07600
C3884       C  0.44693631  0.33246279  0.62970331    -0.11500
C3885       C  0.44355142  0.34875694  0.61840091    -0.10800
C3886       C  0.41826939  0.36357160  0.61631652    -0.01700
C3887       C  0.39762120  0.36425649  0.62621351    -0.11900
C3888       C  0.40075633  0.34750122  0.63741760    -0.10300
H3889       H  0.46585434  0.31978078  0.63075723     0.07600
H3890       H  0.46009533  0.34871803  0.61098604     0.11300
H3891       H  0.37814269  0.37588333  0.62479012     0.11100
H3892       H  0.38324191  0.34605472  0.64427810     0.07600
C3893       C  0.46417862  0.12427359  0.59064543    -0.11500
C3894       C  0.46139489  0.15243954  0.59475252     0.05700
C3895       C  0.48248405  0.17196447  0.59122090    -0.10300
C3896       C  0.50752274  0.16270236  0.58528964    -0.11900
C3897       C  0.51163061  0.13383175  0.58273836    -0.01700
C3898       C  0.48899872  0.11508384  0.58468749    -0.10800
C3899       C  0.44048886  0.15919972  0.60517577     0.05700
H3900       H  0.48054526  0.19396972  0.59397925     0.07600
H3901       H  0.52424646  0.17783001  0.58349033     0.11100
H3902       H  0.49112251  0.09279853  0.58252280     0.11300
H3903       H  0.44844602  0.10861298  0.59320602     0.07600
C3904       C  0.41394506  0.14581504  0.60539158    -0.11500
C3905       C  0.39823792  0.14475358  0.61707672    -0.10800
C3906       C  0.40878893  0.15719168  0.62870036    -0.01700
C3907       C  0.43387182  0.17303184  0.62808025    -0.11900
C3908       C  0.44953820  0.17403630  0.61644778    -0.10300
H3909       H  0.40622674  0.13459601  0.59677393     0.07600
H3910       H  0.37863933  0.13292925  0.61716642     0.11300
H3911       H  0.44225950  0.18346890  0.63677735     0.11100
H3912       H  0.46994506  0.18438987  0.61668955     0.07600
C3913       C  0.04932687  0.00948882  0.49500338    -0.11500
C3914       C  0.02554356  0.02030970  0.50163928     0.05700
C3915       C  0.02840082  0.02758237  0.51511331    -0.10300
C3916       C  0.05375043  0.02231909  0.52193325    -0.11900
C3917       C  0.07668059  0.00949108  0.51544682    -0.01700
C3918       C  0.07448006  0.00409619  0.50181437    -0.10800
C3919       C  0.99812164  0.02400641  0.49442119     0.05700
H3920       H  0.01061118  0.03600624  0.52057104     0.07600
H3921       H  0.05460396  0.02621332  0.53248740     0.11100
H3922       H  0.09179521  0.99419289  0.49655161     0.11300
H3923       H  0.04833430  0.00454373  0.48455663     0.07600
C3924       C  0.98951568  0.00471264  0.48455051    -0.11500
C3925       C  0.96570976  0.01011565  0.47662693    -0.10800
C3926       C  0.94983755  0.03488362  0.47842950    -0.01700
C3927       C  0.95713138  0.05289305  0.48902141    -0.11900
C3928       C  0.98095428  0.04761086  0.49685086    -0.10300
H3929       H  0.00172960  0.98581995  0.48265517     0.07600
H3930       H  0.96076106  0.99574614  0.46861350     0.11300
H3931       H  0.94542453  0.07216151  0.49078091     0.11100
H3932       H  0.98676442  0.06293794  0.50432520     0.07600
C3933       C  0.23861512  0.01470523  0.50388428    -0.11500
C3934       C  0.26606918  0.00348649  0.50339623     0.05700
C3935       C  0.27493403  0.98527076  0.51353979    -0.10300
C3936       C  0.25623441  0.97722365  0.52358391    -0.11900
C3937       C  0.22848857  0.98777356  0.52386842    -0.01700
C3938       C  0.22012638  0.00719851  0.51410656    -0.10800
C3939       C  0.28410709  0.00737767  0.49152628     0.05700
H3940       H  0.29584221  0.97596854  0.51327319     0.07600
H3941       H  0.26322434  0.96216107  0.53093044     0.11100
H3942       H  0.19876529  0.01542939  0.51396451     0.11300
H3943       H  0.23121443  0.02860057  0.49612855     0.07600
C3944       C  0.27324840  0.00048873  0.47899735    -0.11500
C3945       C  0.29137995  0.99714244  0.46820218    -0.10800
C3946       C  0.32057989  0.00132379  0.46964979    -0.01700
C3947       C  0.33112278  0.01110797  0.48182165    -0.11900
C3948       C  0.31303506  0.01378418  0.49274254    -0.10300
H3949       H  0.25108360  0.99532154  0.47779753     0.07600
H3950       H  0.28286013  0.98945431  0.45892218     0.11300
H3951       H  0.35363667  0.01416944  0.48320296     0.11100
H3952       H  0.32185152  0.01927668  0.50229648     0.07600
C3953       C  0.12929184  0.86451094  0.63211770    -0.11500
C3954       C  0.12036720  0.83633338  0.63224012     0.05700
C3955       C  0.10887154  0.82436889  0.62069135    -0.10300
C3956       C  0.10767289  0.83988377  0.60903348    -0.11900
C3957       C  0.11816952  0.86755474  0.60871872    -0.01700
C3958       C  0.12813118  0.88002628  0.62046859    -0.10800
C3959       C  0.12642738  0.81816959  0.64368952     0.05700
H3960       H  0.10228206  0.80248709  0.62045845     0.07600
H3961       H  0.09971011  0.82977080  0.60016526     0.11100
H3962       H  0.13595657  0.90150341  0.62059448     0.11300
H3963       H  0.13801841  0.87422830  0.64092331     0.07600
C3964       C  0.15333787  0.81889821  0.64955857    -0.11500
C3965       C  0.16213595  0.79683959  0.65764509    -0.10800
C3966       C  0.14419807  0.77369051  0.65986292    -0.01700
C3967       C  0.11607529  0.77489617  0.65539560    -0.11900
C3968       C  0.10728466  0.79698135  0.64733393    -0.10300
H3969       H  0.16850688  0.83508263  0.64695278     0.07600
H3970       H  0.18374829  0.79682817  0.66119436     0.11300
H3971       H  0.10149514  0.75771389  0.65721423     0.11100
H3972       H  0.08617399  0.79644164  0.64318077     0.07600
C3973       C  0.01609814  0.73091779  0.52258050    -0.11500
C3974       C  0.00845735  0.75782694  0.52748511     0.05700
C3975       C  0.98335495  0.75987299  0.53486514    -0.10300
C3976       C  0.96719501  0.73583869  0.53780909    -0.11900
C3977       C  0.97512823  0.70880272  0.53328651    -0.01700
C3978       C  0.99946488  0.70675940  0.52531664    -0.10800
C3979       C  0.02755123  0.78324533  0.52622838     0.05700
H3980       H  0.97694090  0.77996259  0.53900697     0.07600
H3981       H  0.94879422  0.73830155  0.54408439     0.11100
H3982       H  0.00652192  0.68631463  0.52184751     0.11300
H3983       H  0.03532373  0.72845882  0.51688475     0.07600
C3984       C  0.05647939  0.78114572  0.52931427    -0.11500
C3985       C  0.07323562  0.80547060  0.53088925    -0.10800
C3986       C  0.06188889  0.83271437  0.52911136    -0.01700
C3987       C  0.03356964  0.83481861  0.52496029    -0.11900
C3988       C  0.01657059  0.81042633  0.52364784    -0.10300
H3989       H  0.06571553  0.76077140  0.53148219     0.07600
H3990       H  0.09484768  0.80305608  0.53425563     0.11300
H3991       H  0.02396673  0.85538342  0.52373015     0.11100
H3992       H  0.99443201  0.81290982  0.52117660     0.07600
C3993       C  0.99239160  0.85865724  0.59706666    -0.11500
C3994       C  0.96930177  0.87735859  0.59747090     0.05700
C3995       C  0.96551782  0.89655248  0.58709044    -0.10300
C3996       C  0.98662948  0.89991705  0.57763240    -0.11900
C3997       C  0.01181706  0.88428079  0.57850327    -0.01700
C3998       C  0.01364842  0.86218133  0.58765669    -0.10800
C3999       C  0.95286303  0.88076901  0.60978279     0.05700
H4000       H  0.94785071  0.91107394  0.58705459     0.07600
H4001       H  0.98450059  0.91675198  0.57046985     0.11100
H4002       H  0.03272588  0.84966173  0.58847182     0.11300
H4003       H  0.99529950  0.84304055  0.60475434     0.07600
C4004       C  0.96715265  0.88008557  0.62194755    -0.11500
C4005       C  0.95284291  0.88537158  0.63365534    -0.10800
C4006       C  0.92383621  0.89154099  0.63351773    -0.01700
C4007       C  0.90951527  0.89295355  0.62135376    -0.11900
C4008       C  0.92394766  0.88760070  0.60955732    -0.10300
H4009       H  0.98964730  0.87596576  0.62243470     0.07600
H4010       H  0.96452035  0.88417328  0.64285721     0.11300
H4011       H  0.88704214  0.89727824  0.62097496     0.11100
H4012       H  0.91247624  0.88849194  0.60029858     0.07600
C4013       C  0.22416609  0.03956344  0.60692605    -0.11500
C4014       C  0.20770836  0.05768574  0.61494807     0.05700
C4015       C  0.18001466  0.06368527  0.61043673    -0.10300
C4016       C  0.16880658  0.05076038  0.59887412    -0.11900
C4017       C  0.18504195  0.03183177  0.59122468    -0.01700
C4018       C  0.21301305  0.02681944  0.59541442    -0.10800
C4019       C  0.21925481  0.06916356  0.62805357     0.05700
H4020       H  0.16636571  0.07720481  0.61624115     0.07600
H4021       H  0.14679328  0.05417113  0.59640043     0.11100
H4022       H  0.22588344  0.01160444  0.59014022     0.11300
H4023       H  0.24568670  0.03456339  0.60970236     0.07600
C4024       C  0.23806331  0.05300588  0.63580888    -0.11500
C4025       C  0.25084080  0.06409274  0.64732341    -0.10800
C4026       C  0.24542705  0.09180896  0.65176794    -0.01700
C4027       C  0.22567851  0.10767527  0.64440103    -0.11900
C4028       C  0.21257219  0.09645147  0.63286135    -0.10300
H4029       H  0.24361750  0.03179111  0.63280785     0.07600
H4030       H  0.26668807  0.05149990  0.65231367     0.11300
H4031       H  0.22187129  0.12951120  0.64700979     0.11100
H4032       H  0.19843685  0.10985568  0.62727532     0.07600
loop_ 
_geom_bond_atom_site_label_1 
_geom_bond_atom_site_label_2 
_geom_bond_distance 
_geom_bond_site_symmetry_2 
_ccdc_geom_bond_type 
Zr1           O2   2.437   1_565  S
Zr1           O3   2.440       .  S
Zr1           O4   2.555   1_565  S
Zr1           O7   2.486   1_565  S
Zr1           O9   2.379       .  S
Zr1          O10   2.422       .  S
Zr1          O11   2.402       .  S
Zr1          O12   2.408       .  S
O2           H58   0.991       .  S
O2           H66   0.990       .  S
O3           C23   1.284       .  A
O4           C25   1.307       .  A
O5          Zr15   2.436       .  S
O5           C24   1.281       .  A
O6          Zr14   2.383       .  S
O6           C25   1.274   1_565  A
O7           C24   1.295   1_545  A
O8          Zr16   2.442       .  S
O8           C23   1.285       .  A
O9          Zr14   2.396       .  S
O9          Zr16   2.382       .  S
O10         Zr15   2.402       .  S
O10         Zr16   2.374       .  S
O10          H45   0.965       .  S
O11         Zr14   2.396       .  S
O11         Zr31   2.408       .  S
O11          H48   0.966       .  S
O12         Zr15   2.412       .  S
O12         Zr31   2.354       .  S
Zr13         O38   2.439       .  S
Zr13         O32   2.433       .  S
Zr13         O40   2.412       .  S
Zr13         O28   2.413       .  S
Zr13         O19   2.406       .  S
Zr13         O20   2.404       .  S
Zr13         O21   2.376       .  S
Zr13         O22   2.382       .  S
Zr14         O33   2.442       .  S
Zr14         O26   2.433       .  S
Zr14         O27   2.407       .  S
Zr14         O20   2.386       .  S
Zr14         O21   2.371       .  S
Zr15         O17   2.437       .  S
Zr15         O39   2.436       .  S
Zr15         O41   2.512       .  S
Zr15         O19   2.379       .  S
Zr15         O22   2.378       .  S
Zr16         O42   2.439       .  S
Zr16         O43   2.438       .  S
Zr16         O18   2.437       .  S
Zr16         O19   2.415       .  S
Zr16         O20   2.407       .  S
O17          H54   0.990       .  S
O18          H49   0.990       .  S
O18          H63   0.990       .  S
O20          H46   0.966       .  S
O21         Zr31   2.364       .  S
O22         Zr31   2.385       .  S
O22          H47   0.965       .  S
C23        C3937   1.484       .  S
C24        C3917   1.483   1_565  S
C25        C4017   1.507       .  S
O26          H62   0.990       .  S
O27          C29   1.280       .  A
O28          C29   1.282       .  A
C29        C3957   1.470       .  S
O30         Zr31   2.435   1_545  S
O30          H59   0.990       .  S
Zr31         O34   2.435       .  S
Zr31         O35   2.437       .  S
Zr31         O36   2.408       .  S
O32          C37   1.285       .  A
O33          H50   0.990       .  S
O33          H65   0.990       .  S
O34          H51   0.990       .  S
O35          H55   0.990       .  S
O35          H64   0.990       .  S
O36          C37   1.281       .  A
C37        C3997   1.471       .  S
O38          H57   0.990       .  S
O38          H61   0.990       .  S
O39          H53   0.990       .  S
O39          H60   0.990       .  S
O40          C44   1.281       .  A
O41          C44   1.299       .  A
O42          H52   0.991       .  S
O43          H56   0.990       .  S
C44        C3986   1.501       .  S
Zr67         O68   2.437       .  S
Zr67         O69   2.451       .  S
Zr67         O70   2.572       .  S
Zr67         O73   2.503       .  S
Zr67         O75   2.385       .  S
Zr67         O76   2.425       .  S
Zr67         O77   2.408       .  S
Zr67         O78   2.405       .  S
O68         H124   0.990       .  S
O68         H132   0.990       .  S
O69          C89   1.287       .  A
O70          C91   1.312       .  A
O71         Zr81   2.434       .  S
O71          C90   1.282       .  A
O72         Zr80   2.377       .  S
O72          C91   1.273       .  A
O73          C90   1.299       .  A
O74         Zr82   2.438       .  S
O74          C89   1.285       .  A
O75         Zr80   2.403       .  S
O75         Zr82   2.376       .  S
O76         Zr81   2.401       .  S
O76         Zr82   2.380       .  S
O76         H111   0.964       .  S
O77         Zr80   2.403       .  S
O77         Zr97   2.405       .  S
O77         H114   0.966       .  S
O78         Zr81   2.410       .  S
O78         Zr97   2.351       .  S
Zr79        O104   2.436       .  S
Zr79         O98   2.410       .  S
Zr79        O106   2.410       .  S
Zr79         O94   2.412       .  S
Zr79         O85   2.400       .  S
Zr79         O86   2.400       .  S
Zr79         O87   2.369       .  S
Zr79         O88   2.378       .  S
Zr80         O99   2.440       .  S
Zr80         O92   2.435       .  S
Zr80         O93   2.426       .  S
Zr80         O86   2.386       .  S
Zr80         O87   2.365       .  S
Zr81         O83   2.435       .  S
Zr81        O105   2.435       .  S
Zr81        O107   2.518       .  S
Zr81         O85   2.379       .  S
Zr81         O88   2.363       .  S
Zr82        O108   2.435       .  S
Zr82        O109   2.437       .  S
Zr82         O84   2.438       .  S
Zr82         O85   2.416       .  S
Zr82         O86   2.409       .  S
O83         H120   0.990       .  S
O84         H115   0.990       .  S
O84         H129   0.990       .  S
O86         H112   0.966       .  S
O87         Zr97   2.363       .  S
O88         Zr97   2.384       .  S
O88         H113   0.964       .  S
C89        C3846   1.480       .  S
C90        C3826   1.491       .  S
C91        C4026   1.511       .  S
O92         H128   0.990       .  S
O93          C95   1.283       .  A
O94          C95   1.282       .  A
C95        C3906   1.477       .  S
O96         Zr97   2.436       .  S
O96         H125   0.990       .  S
Zr97        O100   2.434       .  S
Zr97        O101   2.437       .  S
Zr97        O102   2.411       .  S
O98         C103   1.281       .  A
O99         H116   0.990       .  S
O99         H131   0.990       .  S
O100        H117   0.990       .  S
O101        H121   0.990       .  S
O101        H130   0.990       .  S
O102        C103   1.282       .  A
C103       C3877   1.450       .  S
O104        H123   0.990       .  S
O104        H127   0.990       .  S
O105        H119   0.990       .  S
O105        H126   0.990       .  S
O106        C110   1.281       .  A
O107        C110   1.300       .  A
O108        H118   0.990       .  S
O109        H122   0.990       .  S
C110       C3857   1.508       .  S
Zr133       O134   2.438       .  S
Zr133       O135   2.462       .  S
Zr133       O136   2.494       .  S
Zr133       O139   2.551       .  S
Zr133       O141   2.403       .  S
Zr133       O142   2.399       .  S
Zr133       O143   2.440       .  S
Zr133       O144   2.405       .  S
O134        H190   0.990       .  S
O134        H198   0.991       .  S
O135        C155   1.289       .  A
O136        C157   1.297       .  A
O137       Zr147   2.386       .  S
O137        C156   1.275       .  A
O138       Zr146   2.422       .  S
O138        C157   1.282       .  A
O139        C156   1.307       .  A
O140       Zr148   2.423       .  S
O140        C155   1.282       .  A
O141       Zr146   2.411       .  S
O141       Zr148   2.372       .  S
O142       Zr147   2.401       .  S
O142       Zr148   2.381       .  S
O142        H177   0.966       .  S
O143       Zr146   2.424       .  S
O143       Zr163   2.351       .  S
O143        H180   0.964       .  S
O144       Zr147   2.403       .  S
O144       Zr163   2.388       .  S
Zr145       O170   2.441       .  S
Zr145       O164   2.420       .  S
Zr145       O172   2.412       .  S
Zr145       O160   2.414       .  S
Zr145       O151   2.405       .  S
Zr145       O152   2.399       .  S
Zr145       O153   2.372       .  S
Zr145       O154   2.387       .  S
Zr146       O165   2.438       .  S
Zr146       O158   2.437       .  S
Zr146       O159   2.508       .  S
Zr146       O152   2.384       .  S
Zr146       O153   2.364       .  S
Zr147       O149   2.438       .  S
Zr147       O171   2.434       .  S
Zr147       O173   2.432       .  S
Zr147       O151   2.381       .  S
Zr147       O154   2.384       .  S
Zr148       O174   2.436       .  S
Zr148       O175   2.435       .  S
Zr148       O150   2.436       .  S
Zr148       O151   2.405       .  S
Zr148       O152   2.402       .  S
O149        H186   0.990       .  S
O150        H181   0.990       .  S
O150        H195   0.990       .  S
O152        H178   0.966       .  S
O153       Zr163   2.377       .  S
O154       Zr163   2.348       .  S
O154        H179   0.964       .  S
C155       C3737   1.489       .  S
C156       C3797   1.512       .  S
C157       C3717   1.493       .  S
O158        H194   0.990       .  S
O159        C161   1.297       .  A
O160        C161   1.280       .  A
C161       C3757   1.500       .  S
O162       Zr163   2.435       .  S
O162        H191   0.990       .  S
Zr163       O166   2.435       .  S
Zr163       O167   2.437       .  S
Zr163       O168   2.401       .  S
O164        C169   1.282       .  A
O165        H182   0.990       .  S
O165        H197   0.990       .  S
O166        H183   0.990       .  S
O167        H187   0.990       .  S
O167        H196   0.991       .  S
O168        C169   1.281       .  A
C169       C3777   1.469       .  S
O170        H189   0.990       .  S
O170        H193   0.990       .  S
O171        H185   0.990       .  S
O171        H192   0.990       .  S
O172        C176   1.282       .  A
O173        C176   1.283       .  A
O174        H184   0.990       .  S
O175        H188   0.990       .  S
C176       C3886   1.459       .  S
Zr199       O200   2.438       .  S
Zr199       O201   2.480       .  S
Zr199       O202   2.486       .  S
Zr199       O205   2.559       .  S
Zr199       O207   2.406       .  S
Zr199       O208   2.392       .  S
Zr199       O209   2.458       .  S
Zr199       O210   2.417       .  S
O200        H256   0.990       .  S
O200        H264   0.990       .  S
O201        C221   1.292       .  A
O202        C223   1.291       .  A
O203       Zr213   2.372       .  S
O203        C222   1.273       .  A
O204       Zr212   2.416       .  S
O204        C223   1.275       .  A
O205        C222   1.309       .  A
O206       Zr214   2.416       .  S
O206        C221   1.282       .  A
O207       Zr212   2.415       .  S
O207       Zr214   2.365       .  S
O208       Zr213   2.400       .  S
O208       Zr214   2.380       .  S
O208        H243   0.965       .  S
O209       Zr212   2.434       .  S
O209       Zr229   2.371       .  S
O209        H246   0.965       .  S
O210       Zr213   2.407       .  S
O210       Zr229   2.405       .  S
Zr211       O236   2.439       .  S
Zr211       O230   2.409       .  S
Zr211       O238   2.408       .  S
Zr211       O226   2.400       .  S
Zr211       O217   2.393       .  S
Zr211       O218   2.395       .  S
Zr211       O219   2.375       .  S
Zr211       O220   2.378       .  S
Zr212       O231   2.436       .  S
Zr212       O224   2.433       .  S
Zr212       O225   2.507       .  S
Zr212       O218   2.387       .  S
Zr212       O219   2.368       .  S
Zr213       O215   2.436       .  S
Zr213       O237   2.435       .  S
Zr213       O239   2.437       .  S
Zr213       O217   2.372       .  S
Zr213       O220   2.377       .  S
Zr214       O240   2.435       .  S
Zr214       O241   2.434       .  S
Zr214       O216   2.437       .  S
Zr214       O217   2.397       .  S
Zr214       O218   2.403       .  S
O215        H252   0.991       .  S
O216        H247   0.990       .  S
O216        H261   0.990       .  S
O218        H244   0.966       .  S
O219       Zr229   2.378       .  S
O220       Zr229   2.353       .  S
O220        H245   0.964       .  S
C221       C3657   1.502       .  S
C222       C3806   1.514       .  S
C223       C3637   1.494       .  S
O224        H260   0.990       .  S
O225        C227   1.298       .  A
O226        C227   1.279       .  A
C227       C3677   1.500       .  S
O228       Zr229   2.435       .  S
O228        H257   0.990       .  S
Zr229       O232   2.437       .  S
Zr229       O233   2.443       .  S
Zr229       O234   2.425       .  S
O230        C235   1.281       .  A
O231        H248   0.990       .  S
O231        H263   0.990       .  S
O232        H249   0.990       .  S
O233        H253   0.990       .  S
O233        H262   0.990       .  S
O234        C235   1.283       .  A
C235       C3966   1.473       .  S
O236        H255   0.990       .  S
O236        H259   0.990       .  S
O237        H251   0.990       .  S
O237        H258   0.990       .  S
O238        C242   1.282       .  A
O239        C242   1.285       .  A
O240        H250   0.990       .  S
O241        H254   0.990       .  S
C242       C3706   1.475       .  S
Zr265       O266   2.439   1_545  S
Zr265       O267   2.463       .  S
Zr265       O268   2.478       .  S
Zr265       O271   2.555       .  S
Zr265       O273   2.411       .  S
Zr265       O274   2.394       .  S
Zr265       O275   2.457       .  S
Zr265       O276   2.411       .  S
O266        H322   0.990       .  S
O266        H330   0.990       .  S
O267        C287   1.289       .  A
O268        C289   1.289       .  A
O269       Zr279   2.380       .  S
O269        C288   1.275       .  A
O270       Zr278   2.418       .  S
O270        C289   1.274       .  A
O271        C288   1.308       .  A
O272       Zr280   2.430       .  S
O272        C287   1.283       .  A
O273       Zr278   2.416       .  S
O273       Zr280   2.360       .  S
O274       Zr279   2.405       .  S
O274       Zr280   2.380       .  S
O274        H309   0.965       .  S
O275       Zr278   2.430       .  S
O275       Zr295   2.359       .  S
O275        H312   0.963       .  S
O276       Zr279   2.399       .  S
O276       Zr295   2.400       .  S
Zr277       O302   2.441       .  S
Zr277       O296   2.425       .  S
Zr277       O304   2.409       .  S
Zr277       O292   2.417       .  S
Zr277       O283   2.401       .  S
Zr277       O284   2.400       .  S
Zr277       O285   2.372       .  S
Zr277       O286   2.382       .  S
Zr278       O297   2.437       .  S
Zr278       O290   2.434       .  S
Zr278       O291   2.500       .  S
Zr278       O284   2.390       .  S
Zr278       O285   2.366       .  S
Zr279       O281   2.436       .  S
Zr279       O303   2.437       .  S
Zr279       O305   2.426       .  S
Zr279       O283   2.384       .  S
Zr279       O286   2.377       .  S
Zr280       O306   2.438       .  S
Zr280       O307   2.435       .  S
Zr280       O282   2.437       .  S
Zr280       O283   2.402       .  S
Zr280       O284   2.408       .  S
O281        H318   0.990       .  S
O282        H313   0.990       .  S
O282        H327   0.990       .  S
O284        H310   0.966       .  S
O285       Zr295   2.376       .  S
O286       Zr295   2.358       .  S
O286        H311   0.966       .  S
C287       C3577   1.491       .  S
C288       C3617   1.511   1_545  S
C289       C3557   1.491       .  S
O290        H326   0.990       .  S
O291        C293   1.296       .  A
O292        C293   1.281       .  A
C293       C3766   1.502       .  S
O294       Zr295   2.435       .  S
O294        H323   0.990       .  S
Zr295       O298   2.436       .  S
Zr295       O299   2.438       .  S
Zr295       O300   2.414       .  S
O296        C301   1.284       .  A
O297        H314   0.989       .  S
O297        H329   0.990       .  S
O298        H315   0.990       .  S
O299        H319   0.990       .  S
O299        H328   0.989       .  S
O300        C301   1.282       .  A
C301       C3897   1.477       .  S
O302        H321   0.990       .  S
O302        H325   0.990       .  S
O303        H317   0.990       .  S
O303        H324   0.990       .  S
O304        C308   1.282       .  A
O305        C308   1.283       .  A
O306        H316   0.990       .  S
O307        H320   0.990       .  S
C308       C3597   1.456       .  S
Zr331       O332   2.439       .  S
Zr331       O333   2.463       .  S
Zr331       O334   2.487       .  S
Zr331       O337   2.539       .  S
Zr331       O339   2.399       .  S
Zr331       O340   2.397       .  S
Zr331       O341   2.436       .  S
Zr331       O342   2.412       .  S
O332        H388   0.990       .  S
O332        H396   0.991       .  S
O333        C353   1.288       .  A
O334        C355   1.294       .  A
O335       Zr345   2.393       .  S
O335        C354   1.275       .  A
O336       Zr344   2.415       .  S
O336        C355   1.279       .  A
O337        C354   1.305       .  A
O338       Zr346   2.401       .  S
O338        C353   1.278       .  A
O339       Zr344   2.412       .  S
O339       Zr346   2.375       .  S
O340       Zr345   2.401       .  S
O340       Zr346   2.388       .  S
O340        H375   0.966       .  S
O341       Zr344   2.416       .  S
O341       Zr361   2.364       .  S
O341        H378   0.963       .  S
O342       Zr345   2.399       .  S
O342       Zr361   2.402       .  S
Zr343       O368   2.439       .  S
Zr343       O362   2.413       .  S
Zr343       O370   2.393       .  S
Zr343       O358   2.419       .  S
Zr343       O349   2.396       .  S
Zr343       O350   2.387       .  S
Zr343       O351   2.372       .  S
Zr343       O352   2.386       .  S
Zr344       O363   2.436       .  S
Zr344       O356   2.435       .  S
Zr344       O357   2.491       .  S
Zr344       O350   2.388       .  S
Zr344       O351   2.365       .  S
Zr345       O347   2.436       .  S
Zr345       O369   2.436       .  S
Zr345       O371   2.431       .  S
Zr345       O349   2.387       .  S
Zr345       O352   2.379       .  S
Zr346       O372   2.436       .  S
Zr346       O373   2.438       .  S
Zr346       O348   2.438       .  S
Zr346       O349   2.392       .  S
Zr346       O350   2.398       .  S
O347        H384   0.990       .  S
O348        H379   0.990       .  S
O348        H393   0.990       .  S
O350        H376   0.966       .  S
O351       Zr361   2.370       .  S
O352       Zr361   2.359       .  S
O352        H377   0.965       .  S
C353       C3517   1.475       .  S
C354       C3626   1.504       .  S
C355       C3497   1.484       .  S
O356        H392   0.990       .  S
O357        C359   1.295       .  A
O358        C359   1.281       .  A
C359       C3686   1.498       .  S
O360       Zr361   2.435       .  S
O360        H389   0.990       .  S
Zr361       O364   2.437       .  S
Zr361       O365   2.438       .  S
Zr361       O366   2.420       .  S
O362        C367   1.280       .  A
O363        H380   0.990       .  S
O363        H395   0.990       .  S
O364        H381   0.990       .  S
O365        H385   0.990       .  S
O365        H394   0.990       .  S
O366        C367   1.282       .  A
C367       C3546   1.457       .  S
O368        H387   0.990       .  S
O368        H391   0.990       .  S
O369        H383   0.990       .  S
O369        H390   0.990       .  S
O370        C374   1.280       .  A
O371        C374   1.284       .  A
O372        H382   0.991       .  S
O373        H386   0.990       .  S
C374       C4006   1.469       .  S
Zr397       O398   2.437       .  S
Zr397       O399   2.468       .  S
Zr397       O400   2.576       .  S
Zr397       O403   2.508       .  S
Zr397       O405   2.386       .  S
Zr397       O406   2.429       .  S
Zr397       O407   2.417       .  S
Zr397       O408   2.409       .  S
O398        H454   0.990       .  S
O398        H462   0.990       .  S
O399        C419   1.291       .  A
O400        C421   1.311       .  A
O401       Zr411   2.433       .  S
O401        C420   1.279       .  A
O402       Zr410   2.398       .  S
O402        C421   1.279       .  A
O403        C420   1.299       .  A
O404       Zr412   2.430       .  S
O404        C419   1.284       .  A
O405       Zr410   2.399       .  S
O405       Zr412   2.382       .  S
O406       Zr411   2.407       .  S
O406       Zr412   2.374       .  S
O406        H441   0.964       .  S
O407       Zr410   2.403       .  S
O407       Zr427   2.418       .  S
O407        H444   0.965       .  S
O408       Zr411   2.406       .  S
O408       Zr427   2.350       .  S
Zr409       O434   2.438       .  S
Zr409       O428   2.430       .  S
Zr409       O436   2.406       .  S
Zr409       O424   2.396       .  S
Zr409       O415   2.404       .  S
Zr409       O416   2.404       .  S
Zr409       O417   2.373       .  S
Zr409       O418   2.378       .  S
Zr410       O429   2.437       .  S
Zr410       O422   2.438       .  S
Zr410       O423   2.434       .  S
Zr410       O416   2.390       .  S
Zr410       O417   2.377       .  S
Zr411       O413   2.435       .  S
Zr411       O435   2.438       .  S
Zr411       O437   2.512       .  S
Zr411       O415   2.382       .  S
Zr411       O418   2.374       .  S
Zr412       O438   2.437       .  S
Zr412       O439   2.436       .  S
Zr412       O414   2.438       .  S
Zr412       O415   2.411       .  S
Zr412       O416   2.407       .  S
O413        H450   0.991       .  S
O414        H445   0.990       .  S
O414        H459   0.990       .  S
O416        H442   0.966       .  S
O417       Zr427   2.360       .  S
O418       Zr427   2.387       .  S
O418        H443   0.965       .  S
C419       C3457   1.495       .  S
C420       C3437   1.494       .  S
C421       C3477   1.535       .  S
O422        H458   0.990       .  S
O423        C425   1.284       .  A
O424        C425   1.278       .  A
C425       C3537   1.469       .  S
O426       Zr427   2.434       .  S
O426        H455   0.991       .  S
Zr427       O430   2.434       .  S
Zr427       O431   2.438   1_655  S
Zr427       O432   2.423   1_655  S
O428        C433   1.284   1_655  A
O429        H446   0.990       .  S
O429        H461   0.991       .  S
O430        H447   0.990       .  S
O431        H451   0.990       .  S
O431        H460   0.990   1_455  S
O432        C433   1.284       .  A
C433       C3697   1.480       .  S
O434        H453   0.990       .  S
O434        H457   0.990       .  S
O435        H449   0.990       .  S
O435        H456   0.989       .  S
O436        C440   1.280       .  A
O437        C440   1.299       .  A
O438        H448   0.990       .  S
O439        H452   0.990       .  S
C440       C3977   1.504       .  S
Zr463       O464   2.438       .  S
Zr463       O465   2.449       .  S
Zr463       O466   2.560       .  S
Zr463       O469   2.488       .  S
Zr463       O471   2.381       .  S
Zr463       O472   2.422       .  S
Zr463       O473   2.410       .  S
Zr463       O474   2.415       .  S
O464        H520   0.990       .  S
O464        H528   0.990       .  S
O465        C485   1.287       .  A
O466        C487   1.308       .  A
O467       Zr477   2.429       .  S
O467        C486   1.285       .  A
O468       Zr476   2.398       .  S
O468        C487   1.277       .  A
O469        C486   1.296       .  A
O470       Zr478   2.419       .  S
O470        C485   1.282       .  A
O471       Zr476   2.393       .  S
O471       Zr478   2.378       .  S
O472       Zr477   2.403       .  S
O472       Zr478   2.385       .  S
O472        H507   0.964       .  S
O473       Zr476   2.405       .  S
O473       Zr493   2.403       .  S
O473        H510   0.965       .  S
O474       Zr477   2.415       .  S
O474       Zr493   2.364       .  S
Zr475       O500   2.440       .  S
Zr475       O494   2.429       .  S
Zr475       O502   2.405       .  S
Zr475       O490   2.396       .  S
Zr475       O481   2.398       .  S
Zr475       O482   2.403       .  S
Zr475       O483   2.378       .  S
Zr475       O484   2.378       .  S
Zr476       O495   2.440       .  S
Zr476       O488   2.435       .  S
Zr476       O489   2.430       .  S
Zr476       O482   2.388       .  S
Zr476       O483   2.373       .  S
Zr477       O479   2.439       .  S
Zr477       O501   2.438       .  S
Zr477       O503   2.522       .  S
Zr477       O481   2.381       .  S
Zr477       O484   2.366       .  S
Zr478       O504   2.439       .  S
Zr478       O505   2.435       .  S
Zr478       O480   2.439       .  S
Zr478       O481   2.411       .  S
Zr478       O482   2.404       .  S
O479        H516   0.990       .  S
O480        H511   0.990       .  S
O480        H525   0.990       .  S
O482        H508   0.966       .  S
O483       Zr493   2.360       .  S
O484       Zr493   2.385       .  S
O484        H509   0.964       .  S
C485       C3426   1.481       .  S
C486       C3397   1.479       .  S
C487       C3486   1.521       .  S
O488        H524   0.990       .  S
O489        C491   1.282       .  A
O490        C491   1.279       .  A
C491       C3786   1.470       .  S
O492       Zr493   2.436       .  S
O492        H521   0.990       .  S
Zr493       O496   2.436       .  S
Zr493       O497   2.439       .  S
Zr493       O498   2.404       .  S
O494        C499   1.284       .  A
O495        H512   0.990       .  S
O495        H527   0.990       .  S
O496        H513   0.990       .  S
O497        H517   0.990       .  S
O497        H526   0.990       .  S
O498        C499   1.280       .  A
C499       C3606   1.460       .  S
O500        H519   0.990       .  S
O500        H523   0.990       .  S
O501        H515   0.990       .  S
O501        H522   0.990       .  S
O502        C506   1.279       .  A
O503        C506   1.299       .  A
O504        H514   0.990       .  S
O505        H518   0.990       .  S
C506       C3866   1.504       .  S
Zr529       O530   2.437       .  S
Zr529       O531   2.463       .  S
Zr529       O532   2.556       .  S
Zr529       O535   2.508       .  S
Zr529       O537   2.387       .  S
Zr529       O538   2.421       .  S
Zr529       O539   2.413       .  S
Zr529       O540   2.411       .  S
O530        H586   0.990       .  S
O530        H594   0.990       .  S
O531        C551   1.289       .  A
O532        C553   1.308       .  A
O533       Zr543   2.419       .  S
O533        C552   1.276       .  A
O534       Zr542   2.389       .  S
O534        C553   1.276       .  A
O535        C552   1.297       .  A
O536       Zr544   2.426       .  S
O536        C551   1.284       .  A
O537       Zr542   2.395       .  S
O537       Zr544   2.374       .  S
O538       Zr543   2.397       .  S
O538       Zr544   2.372       .  S
O538        H573   0.964       .  S
O539       Zr542   2.403       .  S
O539       Zr559   2.403       .  S
O539        H576   0.966       .  S
O540       Zr543   2.415       .  S
O540       Zr559   2.359       .  S
Zr541       O566   2.438       .  S
Zr541       O560   2.415       .  S
Zr541       O568   2.428       .  S
Zr541       O556   2.411       .  S
Zr541       O547   2.393       .  S
Zr541       O548   2.403       .  S
Zr541       O549   2.380       .  S
Zr541       O550   2.378       .  S
Zr542       O561   2.441       .  S
Zr542       O554   2.437       .  S
Zr542       O555   2.425       .  S
Zr542       O548   2.384       .  S
Zr542       O549   2.375       .  S
Zr543       O545   2.435       .  S
Zr543       O567   2.435       .  S
Zr543       O569   2.495       .  S
Zr543       O547   2.375       .  S
Zr543       O550   2.360       .  S
Zr544       O570   2.436       .  S
Zr544       O571   2.434       .  S
Zr544       O546   2.438       .  S
Zr544       O547   2.403       .  S
Zr544       O548   2.401       .  S
O545        H582   0.989       .  S
O546        H577   0.990       .  S
O546        H591   0.990       .  S
O548        H574   0.966       .  S
O549       Zr559   2.365       .  S
O550       Zr559   2.390       .  S
O550        H575   0.964       .  S
C551       C3297   1.492       .  S
C552       C3277   1.497       .  S
C553       C3377   1.507       .  S
O554        H590   0.990       .  S
O555        C557   1.282       .  A
O556        C557   1.281       .  A
C557       C3346   1.461       .  S
O558       Zr559   2.436       .  S
O558        H587   0.991       .  S
Zr559       O562   2.437       .  S
Zr559       O563   2.437       .  S
Zr559       O564   2.412       .  S
O560        C565   1.282       .  A
O561        H578   0.990       .  S
O561        H593   0.990       .  S
O562        H579   0.990       .  S
O563        H583   0.990       .  S
O563        H592   0.990       .  S
O564        C565   1.282       .  A
C565       C3357   1.457       .  S
O566        H585   0.990       .  S
O566        H589   0.990       .  S
O567        H581   0.990       .  S
O567        H588   0.990       .  S
O568        C572   1.284       .  A
O569        C572   1.296       .  A
O570        H580   0.990       .  S
O571        H584   0.990       .  S
C572       C3317   1.504       .  S
Zr595       O596   2.439       .  S
Zr595       O597   2.471       .  S
Zr595       O598   2.557       .  S
Zr595       O601   2.494       .  S
Zr595       O603   2.383       .  S
Zr595       O604   2.419       .  S
Zr595       O605   2.416       .  S
Zr595       O606   2.414       .  S
O596        H652   0.990       .  S
O596        H660   0.990       .  S
O597        C617   1.291       .  A
O598        C619   1.308       .  A
O599       Zr609   2.425       .  S
O599        C618   1.280       .  A
O600       Zr608   2.387       .  S
O600        C619   1.275       .  A
O601        C618   1.296       .  A
O602       Zr610   2.421       .  S
O602        C617   1.282       .  A
O603       Zr608   2.397       .  S
O603       Zr610   2.378       .  S
O604       Zr609   2.402       .  S
O604       Zr610   2.379       .  S
O604        H639   0.964       .  S
O605       Zr608   2.399       .  S
O605       Zr625   2.414       .  S
O605        H642   0.965       .  S
O606       Zr609   2.408       .  S
O606       Zr625   2.371       .  S
Zr607       O632   2.437       .  S
Zr607       O626   2.409       .  S
Zr607       O634   2.414       .  S
Zr607       O622   2.416       .  S
Zr607       O613   2.399       .  S
Zr607       O614   2.397       .  S
Zr607       O615   2.372       .  S
Zr607       O616   2.374       .  S
Zr608       O627   2.438       .  S
Zr608       O620   2.434       .  S
Zr608       O621   2.413       .  S
Zr608       O614   2.387       .  S
Zr608       O615   2.373       .  S
Zr609       O611   2.434       .  S
Zr609       O633   2.436       .  S
Zr609       O635   2.495       .  S
Zr609       O613   2.390       .  S
Zr609       O616   2.357       .  S
Zr610       O636   2.436       .  S
Zr610       O637   2.436       .  S
Zr610       O612   2.439       .  S
Zr610       O613   2.409       .  S
Zr610       O614   2.398       .  S
O611        H648   0.990       .  S
O612        H643   0.990       .  S
O612        H657   0.990       .  S
O614        H640   0.967       .  S
O615       Zr625   2.357       .  S
O616       Zr625   2.377       .  S
O616        H641   0.965       .  S
C617       C3206   1.493       .  S
C618       C3177   1.497       .  S
C619       C3386   1.507       .  S
O620        H656   0.990       .  S
O621        C623   1.281       .  A
O622        C623   1.283       .  A
C623       C3257   1.461       .  S
O624       Zr625   2.434       .  S
O624        H653   0.990       .  S
Zr625       O628   2.435       .  S
Zr625       O629   2.438       .  S
Zr625       O630   2.432       .  S
O626        C631   1.281       .  A
O627        H644   0.990       .  S
O627        H659   0.990       .  S
O628        H645   0.990       .  S
O629        H649   0.990       .  S
O629        H658   0.990       .  S
O630        C631   1.286       .  A
C631       C3237   1.473       .  S
O632        H651   0.990       .  S
O632        H655   0.990       .  S
O633        H647   0.990       .  S
O633        H654   0.990       .  S
O634        C638   1.281       .  A
O635        C638   1.296       .  A
O636        H646   0.991       .  S
O637        H650   0.990       .  S
C638       C3217   1.496       .  S
Zr661       O662   2.438   1_565  S
Zr661       O663   2.447       .  S
Zr661       O664   2.489   1_565  S
Zr661       O667   2.555   1_565  S
Zr661       O669   2.411       .  S
Zr661       O670   2.395       .  S
Zr661       O671   2.448       .  S
Zr661       O672   2.404       .  S
O662        H718   0.990       .  S
O662        H726   0.990       .  S
O663        C683   1.285       .  A
O664        C685   1.292   1_545  A
O665       Zr675   2.376       .  S
O665        C684   1.272   1_565  A
O666       Zr674   2.417       .  S
O666        C685   1.276       .  A
O667        C684   1.308       .  A
O668       Zr676   2.422       .  S
O668        C683   1.282       .  A
O669       Zr674   2.410       .  S
O669       Zr676   2.364       .  S
O670       Zr675   2.392       .  S
O670       Zr676   2.384       .  S
O670        H705   0.965       .  S
O671       Zr674   2.433       .  S
O671       Zr691   2.369       .  S
O671        H708   0.965       .  S
O672       Zr675   2.402       .  S
O672       Zr691   2.402       .  S
Zr673       O698   2.438       .  S
Zr673       O692   2.414       .  S
Zr673       O700   2.409       .  S
Zr673       O688   2.427       .  S
Zr673       O679   2.403       .  S
Zr673       O680   2.399       .  S
Zr673       O681   2.371       .  S
Zr673       O682   2.385       .  S
Zr674       O693   2.436       .  S
Zr674       O686   2.435       .  S
Zr674       O687   2.499       .  S
Zr674       O680   2.388       .  S
Zr674       O681   2.368       .  S
Zr675       O677   2.437       .  S
Zr675       O699   2.435       .  S
Zr675       O701   2.411       .  S
Zr675       O679   2.378       .  S
Zr675       O682   2.384       .  S
Zr676       O702   2.437       .  S
Zr676       O703   2.435       .  S
Zr676       O678   2.438       .  S
Zr676       O679   2.402       .  S
Zr676       O680   2.400       .  S
O677        H714   0.991       .  S
O678        H709   0.990       .  S
O678        H723   0.990       .  S
O680        H706   0.966       .  S
O681       Zr691   2.376       .  S
O682       Zr691   2.360       .  S
O682        H707   0.965       .  S
C683       C3106   1.481       .  S
C684       C3137   1.508       .  S
C685       C3077   1.496       .  S
O686        H722   0.990       .  S
O687        C689   1.297       .  A
O688        C689   1.285       .  A
C689       C3157   1.509       .  S
O690       Zr691   2.436   1_545  S
O690        H719   0.990       .  S
Zr691       O694   2.438       .  S
Zr691       O695   2.441       .  S
Zr691       O696   2.421       .  S
O692        C697   1.281       .  A
O693        H710   0.990       .  S
O693        H725   0.990       .  S
O694        H711   0.990   1_655  S
O695        H715   0.990       .  S
O695        H724   0.990       .  S
O696        C697   1.282       .  A
C697       C3117   1.463   1_655  S
O698        H717   0.990       .  S
O698        H721   0.991       .  S
O699        H713   0.990       .  S
O699        H720   0.990       .  S
O700        C704   1.281       .  A
O701        C704   1.278       .  A
O702        H712   0.990       .  S
O703        H716   0.990       .  S
C704       C3366   1.452       .  S
Zr727       O728   2.438       .  S
Zr727       O729   2.479       .  S
Zr727       O730   2.489       .  S
Zr727       O733   2.549       .  S
Zr727       O735   2.399       .  S
Zr727       O736   2.396       .  S
Zr727       O737   2.445       .  S
Zr727       O738   2.413       .  S
O728        H784   0.990       .  S
O728        H792   0.990       .  S
O729        C749   1.291       .  A
O730        C751   1.296       .  A
O731       Zr741   2.393       .  S
O731        C750   1.277       .  A
O732       Zr740   2.424       .  S
O732        C751   1.281       .  A
O733        C750   1.306       .  A
O734       Zr742   2.413       .  S
O734        C749   1.280       .  A
O735       Zr740   2.411       .  S
O735       Zr742   2.374       .  S
O736       Zr741   2.402       .  S
O736       Zr742   2.388       .  S
O736        H771   0.965       .  S
O737       Zr740   2.422       .  S
O737       Zr757   2.361       .  S
O737        H774   0.965       .  S
O738       Zr741   2.405       .  S
O738       Zr757   2.402       .  S
Zr739       O764   2.440       .  S
Zr739       O758   2.413       .  S
Zr739       O766   2.397       .  S
Zr739       O754   2.411       .  S
Zr739       O745   2.400       .  S
Zr739       O746   2.395       .  S
Zr739       O747   2.369       .  S
Zr739       O748   2.381       .  S
Zr740       O759   2.438       .  S
Zr740       O752   2.433       .  S
Zr740       O753   2.493       .  S
Zr740       O746   2.386       .  S
Zr740       O747   2.368       .  S
Zr741       O743   2.438       .  S
Zr741       O765   2.435       .  S
Zr741       O767   2.431       .  S
Zr741       O745   2.384       .  S
Zr741       O748   2.381       .  S
Zr742       O768   2.437       .  S
Zr742       O769   2.434       .  S
Zr742       O744   2.437       .  S
Zr742       O745   2.402       .  S
Zr742       O746   2.400       .  S
O743        H780   0.990       .  S
O744        H775   0.990       .  S
O744        H789   0.990       .  S
O746        H772   0.967       .  S
O747       Zr757   2.371       .  S
O748       Zr757   2.356       .  S
O748        H773   0.966       .  S
C749       C3017   1.489       .  S
C750       C3146   1.514       .  S
C751       C2997   1.481       .  S
O752        H788   0.990       .  S
O753        C755   1.295       .  A
O754        C755   1.281       .  A
C755       C3046   1.496       .  S
O756       Zr757   2.436       .  S
O756        H785   0.990       .  S
Zr757       O760   2.436       .  S
Zr757       O761   2.440       .  S
Zr757       O762   2.419       .  S
O758        C763   1.280       .  A
O759        H776   0.990       .  S
O759        H791   0.990       .  S
O760        H777   0.990       .  S
O761        H781   0.990       .  S
O761        H790   0.990       .  S
O762        C763   1.282       .  A
C763       C3266   1.460       .  S
O764        H783   0.990       .  S
O764        H787   0.990       .  S
O765        H779   0.990       .  S
O765        H786   0.990       .  S
O766        C770   1.278       .  A
O767        C770   1.283       .  A
O768        H778   0.989       .  S
O769        H782   0.990       .  S
C770       C3057   1.456       .  S
Zr793       O794   2.437       .  S
Zr793       O795   2.467       .  S
Zr793       O796   2.570       .  S
Zr793       O799   2.504       .  S
Zr793       O801   2.386       .  S
Zr793       O802   2.426       .  S
Zr793       O803   2.408       .  S
Zr793       O804   2.407       .  S
O794        H850   0.990       .  S
O794        H858   0.990       .  S
O795        C815   1.289       .  A
O796        C817   1.311       .  A
O797       Zr807   2.427       .  S
O797        C816   1.281       .  A
O798       Zr806   2.388       .  S
O798        C817   1.276       .  A
O799        C816   1.298       .  A
O800       Zr808   2.420       .  S
O800        C815   1.282       .  A
O801       Zr806   2.393       .  S
O801       Zr808   2.381       .  S
O802       Zr807   2.409       .  S
O802       Zr808   2.379       .  S
O802        H837   0.966       .  S
O803       Zr806   2.401       .  S
O803       Zr823   2.399       .  S
O803        H840   0.965       .  S
O804       Zr807   2.412       .  S
O804       Zr823   2.361       .  S
Zr805       O830   2.438       .  S
Zr805       O824   2.428       .  S
Zr805       O832   2.414       .  S
Zr805       O820   2.407       .  S
Zr805       O811   2.399       .  S
Zr805       O812   2.406       .  S
Zr805       O813   2.376       .  S
Zr805       O814   2.378       .  S
Zr806       O825   2.445       .  S
Zr806       O818   2.435       .  S
Zr806       O819   2.420       .  S
Zr806       O812   2.385       .  S
Zr806       O813   2.378       .  S
Zr807       O809   2.435       .  S
Zr807       O831   2.436       .  S
Zr807       O833   2.515       .  S
Zr807       O811   2.378       .  S
Zr807       O814   2.359       .  S
Zr808       O834   2.435       .  S
Zr808       O835   2.437       .  S
Zr808       O810   2.437       .  S
Zr808       O811   2.406       .  S
Zr808       O812   2.399       .  S
O809        H846   0.990       .  S
O810        H841   0.990       .  S
O810        H855   0.990       .  S
O812        H838   0.965       .  S
O813       Zr823   2.362       .  S
O814       Zr823   2.379       .  S
O814        H839   0.964       .  S
C815       C2937   1.482       .  S
C816       C2917   1.491       .  S
C817       C2986   1.514       .  S
O818        H854   0.990       .  S
O819        C821   1.281       .  A
O820        C821   1.280       .  A
C821       C3126   1.459       .  S
O822       Zr823   2.435       .  S
O822        H851   0.990       .  S
Zr823       O826   2.436       .  S
Zr823       O827   2.438       .  S
Zr823       O828   2.411       .  S
O824        C829   1.284       .  A
O825        H842   0.990       .  S
O825        H857   0.989       .  S
O826        H843   0.990       .  S
O827        H847   0.990       .  S
O827        H856   0.990       .  S
O828        C829   1.282       .  A
C829       C2957   1.470       .  S
O830        H849   0.990       .  S
O830        H853   0.990       .  S
O831        H845   0.990       .  S
O831        H852   0.990       .  S
O832        C836   1.282       .  A
O833        C836   1.299       .  A
O834        H844   0.990       .  S
O835        H848   0.990       .  S
C836       C3326   1.504       .  S
Zr859       O860   2.437   1_545  S
Zr859       O861   2.460       .  S
Zr859       O862   2.567       .  S
Zr859       O865   2.500       .  S
Zr859       O867   2.386       .  S
Zr859       O868   2.418       .  S
Zr859       O869   2.406       .  S
Zr859       O870   2.416       .  S
O860        H916   0.990       .  S
O860        H924   0.990       .  S
O861        C881   1.289       .  A
O862        C883   1.310       .  A
O863       Zr873   2.417       .  S
O863        C882   1.278       .  A
O864       Zr872   2.388       .  S
O864        C883   1.275       .  A
O865        C882   1.298       .  A
O866       Zr874   2.427       .  S
O866        C881   1.283       .  A
O867       Zr872   2.393       .  S
O867       Zr874   2.382       .  S
O868       Zr873   2.399       .  S
O868       Zr874   2.378       .  S
O868        H903   0.965       .  S
O869       Zr872   2.398       .  S
O869       Zr889   2.399       .  S
O869        H906   0.965       .  S
O870       Zr873   2.414       .  S
O870       Zr889   2.371       .  S
Zr871       O896   2.441       .  S
Zr871       O890   2.410       .  S
Zr871       O898   2.430       .  S
Zr871       O886   2.424       .  S
Zr871       O877   2.400       .  S
Zr871       O878   2.399       .  S
Zr871       O879   2.381       .  S
Zr871       O880   2.379       .  S
Zr872       O891   2.438       .  S
Zr872       O884   2.435       .  S
Zr872       O885   2.412       .  S
Zr872       O878   2.384       .  S
Zr872       O879   2.375       .  S
Zr873       O875   2.437       .  S
Zr873       O897   2.436       .  S
Zr873       O899   2.490       .  S
Zr873       O877   2.384       .  S
Zr873       O880   2.360       .  S
Zr874       O900   2.438       .  S
Zr874       O901   2.435       .  S
Zr874       O876   2.435       .  S
Zr874       O877   2.408       .  S
Zr874       O878   2.395       .  S
O875        H912   0.990       .  S
O876        H907   0.990       .  S
O876        H921   0.990       .  S
O878        H904   0.968       .  S
O879       Zr889   2.359       .  S
O880       Zr889   2.378       .  S
O880        H905   0.964       .  S
C881       C2886   1.484       .  S
C882       C2866   1.489       .  S
C883       C2977   1.512   1_545  S
O884        H920   0.990       .  S
O885        C887   1.280       .  A
O886        C887   1.285       .  A
C887       C2897   1.474       .  S
O888       Zr889   2.436       .  S
O888        H917   0.990       .  S
Zr889       O892   2.436       .  S
Zr889       O893   2.436       .  S
Zr889       O894   2.417       .  S
O890        C895   1.281       .  A
O891        H908   0.990       .  S
O891        H923   0.990       .  S
O892        H909   0.990       .  S
O893        H913   0.990       .  S
O893        H922   0.990       .  S
O894        C895   1.283       .  A
C895       C3066   1.456       .  S
O896        H915   0.990       .  S
O896        H919   0.990       .  S
O897        H911   0.990       .  S
O897        H918   0.990       .  S
O898        C902   1.283       .  A
O899        C902   1.294       .  A
O900        H910   0.990       .  S
O901        H914   0.990       .  S
C902       C3226   1.498       .  S
Zr925       O926   2.438       .  S
Zr925       O927   2.460       .  S
Zr925       O928   2.483       .  S
Zr925       O931   2.557       .  S
Zr925       O933   2.410       .  S
Zr925       O934   2.390       .  S
Zr925       O935   2.456       .  S
Zr925       O936   2.416       .  S
O926        H982   0.990       .  S
O926        H990   0.990       .  S
O927        C947   1.289       .  A
O928        C949   1.291       .  A
O929       Zr939   2.400       .  S
O929        C948   1.277       .  A
O930       Zr938   2.430       .  S
O930        C949   1.278       .  A
O931        C948   1.309       .  A
O932       Zr940   2.415       .  S
O932        C947   1.282       .  A
O933       Zr938   2.411       .  S
O933       Zr940   2.369       .  S
O934       Zr939   2.398       .  S
O934       Zr940   2.381       .  S
O934        H969   0.964       .  S
O935       Zr938   2.423       .  S
O935       Zr955   2.355       .  S
O935        H972   0.963       .  S
O936       Zr939   2.397       .  S
O936       Zr955   2.409       .  S
Zr937       O962   2.440       .  S
Zr937       O956   2.422       .  S
Zr937       O964   2.411       .  S
Zr937       O952   2.427       .  S
Zr937       O943   2.402       .  S
Zr937       O944   2.394       .  S
Zr937       O945   2.372       .  S
Zr937       O946   2.386       .  S
Zr938       O957   2.435       .  S
Zr938       O950   2.435       .  S
Zr938       O951   2.496       .  S
Zr938       O944   2.389       .  S
Zr938       O945   2.372       .  S
Zr939       O941   2.436       .  S
Zr939       O963   2.438       .  S
Zr939       O965   2.421       .  S
Zr939       O943   2.389       .  S
Zr939       O946   2.381       .  S
Zr940       O966   2.439       .  S
Zr940       O967   2.437       .  S
Zr940       O942   2.437       .  S
Zr940       O943   2.395       .  S
Zr940       O944   2.395       .  S
O941        H978   0.991       .  S
O942        H973   0.990       .  S
O942        H987   0.990       .  S
O944        H970   0.967       .  S
O945       Zr955   2.379       .  S
O946       Zr955   2.353       .  S
O946        H971   0.966       .  S
C947       C2826   1.493       .  S
C948       C2837   1.514       .  S
C949       C2797   1.495       .  S
O950        H986   0.990       .  S
O951        C953   1.296       .  A
O952        C953   1.283       .  A
C953       C3037   1.501       .  S
O954       Zr955   2.436       .  S
O954        H983   0.990       .  S
Zr955       O958   2.437       .  S
Zr955       O959   2.437       .  S
Zr955       O960   2.413       .  S
O956        C961   1.284       .  A
O957        H974   0.990       .  S
O957        H989   0.990       .  S
O958        H975   0.990       .  S
O959        H979   0.990       .  S
O959        H988   0.990       .  S
O960        C961   1.282       .  A
C961       C2906   1.476       .  S
O962        H981   0.991       .  S
O962        H985   0.990       .  S
O963        H977   0.990       .  S
O963        H984   0.990       .  S
O964        C968   1.283       .  A
O965        C968   1.283       .  A
O966        H976   0.990       .  S
O967        H980   0.990       .  S
C968       C3246   1.471       .  S
Zr991       O992   2.440       .  S
Zr991       O993   2.469       .  S
Zr991       O994   2.482       .  S
Zr991       O997   2.552       .  S
Zr991       O999   2.404       .  S
Zr991      O1000   2.387       .  S
Zr991      O1001   2.447       .  S
Zr991      O1002   2.418       .  S
O992       H1048   0.990       .  S
O992       H1056   0.990       .  S
O993       C1013   1.289       .  A
O994       C1015   1.295       .  A
O995      Zr1005   2.407       .  S
O995       C1014   1.278       .  A
O996      Zr1004   2.434       .  S
O996       C1015   1.283       .  A
O997       C1014   1.308       .  A
O998      Zr1006   2.405       .  S
O998       C1013   1.279       .  A
O999      Zr1004   2.412       .  S
O999      Zr1006   2.376       .  S
O1000     Zr1005   2.399       .  S
O1000     Zr1006   2.380       .  S
O1000      H1035   0.966       .  S
O1001     Zr1004   2.422       .  S
O1001     Zr1021   2.356       .  S
O1001      H1038   0.965       .  S
O1002     Zr1005   2.410       .  S
O1002     Zr1021   2.409       .  S
Zr1003     O1028   2.439       .  S
Zr1003     O1022   2.409       .  S
Zr1003     O1030   2.406       .  S
Zr1003     O1018   2.414       .  S
Zr1003     O1009   2.394       .  S
Zr1003     O1010   2.393       .  S
Zr1003     O1011   2.370       .  S
Zr1003     O1012   2.386       .  S
Zr1004     O1023   2.440       .  S
Zr1004     O1016   2.435       .  S
Zr1004     O1017   2.504       .  S
Zr1004     O1010   2.391       .  S
Zr1004     O1011   2.363       .  S
Zr1005     O1007   2.436       .  S
Zr1005     O1029   2.434       .  S
Zr1005     O1031   2.439       .  S
Zr1005     O1009   2.388       .  S
Zr1005     O1012   2.386       .  S
Zr1006     O1032   2.435       .  S
Zr1006     O1033   2.435       .  S
Zr1006     O1008   2.437       .  S
Zr1006     O1009   2.396       .  S
Zr1006     O1010   2.397       .  S
O1007      H1044   0.991       .  S
O1008      H1039   0.990       .  S
O1008      H1053   0.990       .  S
O1010      H1036   0.966       .  S
O1011     Zr1021   2.367       .  S
O1012     Zr1021   2.353       .  S
O1012      H1037   0.964       .  S
C1013      C2777   1.486       .  S
C1014      C2846   1.515       .  S
C1015      C2757   1.483       .  S
O1016      H1052   0.990       .  S
O1017      C1019   1.297       .  A
O1018      C1019   1.281       .  A
C1019      C3166   1.498       .  S
O1020     Zr1021   2.438       .  S
O1020      H1049   0.990       .  S
Zr1021     O1024   2.438       .  S
Zr1021     O1025   2.436       .  S
Zr1021     O1026   2.414       .  S
O1022      C1027   1.280       .  A
O1023      H1040   0.990       .  S
O1023      H1055   0.990       .  S
O1024      H1041   0.990       .  S
O1025      H1045   0.990       .  S
O1025      H1054   0.990       .  S
O1026      C1027   1.282       .  A
C1027      C3337   1.460       .  S
O1028      H1047   0.990       .  S
O1028      H1051   0.990       .  S
O1029      H1043   0.990       .  S
O1029      H1050   0.990       .  S
O1030      C1034   1.281       .  A
O1031      C1034   1.286       .  A
O1032      H1042   0.990       .  S
O1033      H1046   0.990       .  S
C1034      C2966   1.474       .  S
Zr1057     O1058   2.437       .  S
Zr1057     O1059   2.450       .  S
Zr1057     O1060   2.562       .  S
Zr1057     O1063   2.497       .  S
Zr1057     O1065   2.388       .  S
Zr1057     O1066   2.423       .  S
Zr1057     O1067   2.410       .  S
Zr1057     O1068   2.410       .  S
O1058      H1114   0.990       .  S
O1058      H1122   0.990       .  S
O1059      C1079   1.287       .  A
O1060      C1081   1.308       .  A
O1061     Zr1071   2.425       .  S
O1061      C1080   1.280       .  A
O1062     Zr1070   2.392       .  S
O1062      C1081   1.276       .  A
O1063      C1080   1.297       .  A
O1064     Zr1072   2.428       .  S
O1064      C1079   1.284       .  A
O1065     Zr1070   2.392       .  S
O1065     Zr1072   2.384       .  S
O1066     Zr1071   2.408       .  S
O1066     Zr1072   2.377       .  S
O1066      H1101   0.964       .  S
O1067     Zr1070   2.401       .  S
O1067     Zr1087   2.412       .  S
O1067      H1104   0.966       .  S
O1068     Zr1071   2.410       .  S
O1068     Zr1087   2.358       .  S
Zr1069     O1094   2.438       .  S
Zr1069     O1088   2.417       .  S
Zr1069     O1096   2.407       .  S
Zr1069     O1084   2.398       .  S
Zr1069     O1075   2.397       .  S
Zr1069     O1076   2.400       .  S
Zr1069     O1077   2.379       .  S
Zr1069     O1078   2.370       .  S
Zr1070     O1089   2.437       .  S
Zr1070     O1082   2.437       .  S
Zr1070     O1083   2.419       .  S
Zr1070     O1076   2.382       .  S
Zr1070     O1077   2.377       .  S
Zr1071     O1073   2.436       .  S
Zr1071     O1095   2.435       .  S
Zr1071     O1097   2.512       .  S
Zr1071     O1075   2.380       .  S
Zr1071     O1078   2.361       .  S
Zr1072     O1098   2.436       .  S
Zr1072     O1099   2.437       .  S
Zr1072     O1074   2.437       .  S
Zr1072     O1075   2.408       .  S
Zr1072     O1076   2.399       .  S
O1073      H1110   0.990       .  S
O1074      H1105   0.990       .  S
O1074      H1119   0.990       .  S
O1076      H1102   0.965       .  S
O1077     Zr1087   2.364       .  S
O1078     Zr1087   2.376       .  S
O1078      H1103   0.965       .  S
C1079      C3837   1.483       .  S
C1080      C3646   1.487       .  S
C1081      C2746   1.520       .  S
O1082      H1118   0.990       .  S
O1083      C1085   1.282       .  A
O1084      C1085   1.278       .  A
C1085      C2677   1.459       .  S
O1086     Zr1087   2.435       .  S
O1086      H1115   0.990       .  S
Zr1087     O1090   2.434       .  S
Zr1087     O1091   2.438       .  S
Zr1087     O1092   2.421       .  S
O1088      C1093   1.282       .  A
O1089      H1106   0.990       .  S
O1089      H1121   0.991       .  S
O1090      H1107   0.990       .  S
O1091      H1111   0.990       .  S
O1091      H1120   0.990       .  S
O1092      C1093   1.284       .  A
C1093      C2717   1.469       .  S
O1094      H1113   0.990       .  S
O1094      H1117   0.990       .  S
O1095      H1109   0.990       .  S
O1095      H1116   0.990       .  S
O1096      C1100   1.280       .  A
O1097      C1100   1.299       .  A
O1098      H1108   0.990       .  S
O1099      H1112   0.990       .  S
C1100      C2706   1.498       .  S
Zr1123     O1124   2.438   1_545  S
Zr1123     O1125   2.465       .  S
Zr1123     O1126   2.560   1_545  S
Zr1123     O1129   2.508       .  S
Zr1123     O1131   2.385       .  S
Zr1123     O1132   2.415       .  S
Zr1123     O1133   2.418       .  S
Zr1123     O1134   2.413       .  S
O1124      H1180   0.990       .  S
O1124      H1188   0.990       .  S
O1125      C1145   1.289       .  A
O1126      C1147   1.309   1_565  A
O1127     Zr1137   2.420       .  S
O1127      C1146   1.278       .  A
O1128     Zr1136   2.380       .  S
O1128      C1147   1.273       .  A
O1129      C1146   1.299       .  A
O1130     Zr1138   2.426       .  S
O1130      C1145   1.283       .  A
O1131     Zr1136   2.395       .  S
O1131     Zr1138   2.374       .  S
O1132     Zr1137   2.399       .  S
O1132     Zr1138   2.375       .  S
O1132      H1167   0.965       .  S
O1133     Zr1136   2.407       .  S
O1133     Zr1153   2.409       .  S
O1133      H1170   0.966       .  S
O1134     Zr1137   2.414       .  S
O1134     Zr1153   2.371       .  S
Zr1135     O1160   2.439       .  S
Zr1135     O1154   2.423       .  S
Zr1135     O1162   2.412       .  S
Zr1135     O1150   2.417       .  S
Zr1135     O1141   2.401       .  S
Zr1135     O1142   2.402       .  S
Zr1135     O1143   2.373       .  S
Zr1135     O1144   2.377       .  S
Zr1136     O1155   2.441       .  S
Zr1136     O1148   2.438       .  S
Zr1136     O1149   2.423       .  S
Zr1136     O1142   2.385       .  S
Zr1136     O1143   2.376       .  S
Zr1137     O1139   2.436       .  S
Zr1137     O1161   2.433       .  S
Zr1137     O1163   2.506       .  S
Zr1137     O1141   2.381       .  S
Zr1137     O1144   2.359       .  S
Zr1138     O1164   2.435       .  S
Zr1138     O1165   2.434       .  S
Zr1138     O1140   2.437       .  S
Zr1138     O1141   2.408       .  S
Zr1138     O1142   2.405       .  S
O1139      H1176   0.990       .  S
O1140      H1171   0.990       .  S
O1140      H1185   0.990       .  S
O1142      H1168   0.965       .  S
O1143     Zr1153   2.363       .  S
O1144     Zr1153   2.382       .  S
O1144      H1169   0.964       .  S
C1145      C2877   1.488       .  S
C1146      C3086   1.490       .  S
C1147      C2737   1.505   1_545  S
O1148      H1184   0.990       .  S
O1149      C1151   1.282       .  A
O1150      C1151   1.282       .  A
C1151      C2666   1.477       .  S
O1152     Zr1153   2.436       .  S
O1152      H1181   0.991       .  S
Zr1153     O1156   2.435       .  S
Zr1153     O1157   2.437       .  S
Zr1153     O1158   2.424       .  S
O1154      C1159   1.283       .  A
O1155      H1172   0.990       .  S
O1155      H1187   0.990       .  S
O1156      H1173   0.990       .  S
O1157      H1177   0.990       .  S
O1157      H1186   0.990       .  S
O1158      C1159   1.285       .  A
C1159      C2646   1.474       .  S
O1160      H1179   0.990       .  S
O1160      H1183   0.990       .  S
O1161      H1175   0.990       .  S
O1161      H1182   0.990       .  S
O1162      C1166   1.281       .  A
O1163      C1166   1.298       .  A
O1164      H1174   0.991       .  S
O1165      H1178   0.990       .  S
C1166      C2626   1.502       .  S
Zr1189     O1190   2.436       .  S
Zr1189     O1191   2.445       .  S
Zr1189     O1192   2.568       .  S
Zr1189     O1195   2.498       .  S
Zr1189     O1197   2.379       .  S
Zr1189     O1198   2.428       .  S
Zr1189     O1199   2.405       .  S
Zr1189     O1200   2.407       .  S
O1190      H1246   0.990       .  S
O1190      H1254   0.990       .  S
O1191      C1211   1.286       .  A
O1192      C1213   1.311       .  A
O1193     Zr1203   2.428       .  S
O1193      C1212   1.280       .  A
O1194     Zr1202   2.378       .  S
O1194      C1213   1.273       .  A
O1195      C1212   1.297       .  A
O1196     Zr1204   2.437       .  S
O1196      C1211   1.285       .  A
O1197     Zr1202   2.397       .  S
O1197     Zr1204   2.372       .  S
O1198     Zr1203   2.406       .  S
O1198     Zr1204   2.374       .  S
O1198      H1233   0.964       .  S
O1199     Zr1202   2.404       .  S
O1199     Zr1219   2.403       .  S
O1199      H1236   0.966       .  S
O1200     Zr1203   2.415       .  S
O1200     Zr1219   2.353       .  S
Zr1201     O1226   2.439       .  S
Zr1201     O1220   2.425       .  S
Zr1201     O1228   2.404       .  S
Zr1201     O1216   2.407       .  S
Zr1201     O1207   2.408       .  S
Zr1201     O1208   2.399       .  S
Zr1201     O1209   2.371       .  S
Zr1201     O1210   2.377       .  S
Zr1202     O1221   2.440       .  S
Zr1202     O1214   2.434       .  S
Zr1202     O1215   2.419       .  S
Zr1202     O1208   2.384       .  S
Zr1202     O1209   2.372       .  S
Zr1203     O1205   2.435       .  S
Zr1203     O1227   2.437       .  S
Zr1203     O1229   2.519       .  S
Zr1203     O1207   2.387       .  S
Zr1203     O1210   2.362       .  S
Zr1204     O1230   2.435       .  S
Zr1204     O1231   2.437       .  S
Zr1204     O1206   2.436       .  S
Zr1204     O1207   2.422       .  S
Zr1204     O1208   2.406       .  S
O1205      H1242   0.990       .  S
O1206      H1237   0.989       .  S
O1206      H1251   0.990       .  S
O1208      H1234   0.967       .  S
O1209     Zr1219   2.366       .  S
O1210     Zr1219   2.389       .  S
O1210      H1235   0.964       .  S
C1211      C3417   1.480       .  S
C1212      C3506   1.496       .  S
C1213      C2597   1.510       .  S
O1214      H1250   0.990       .  S
O1215      C1217   1.282       .  A
O1216      C1217   1.281       .  A
C1217      C2566   1.474       .  S
O1218     Zr1219   2.436       .  S
O1218      H1247   0.990       .  S
Zr1219     O1222   2.434       .  S
Zr1219     O1223   2.439       .  S
Zr1219     O1224   2.399       .  S
O1220      C1225   1.284       .  A
O1221      H1238   0.990       .  S
O1221      H1253   0.990       .  S
O1222      H1239   0.990       .  S
O1223      H1243   0.990       .  S
O1223      H1252   0.990       .  S
O1224      C1225   1.280       .  A
C1225      C2577   1.466       .  S
O1226      H1245   0.991       .  S
O1226      H1249   0.990       .  S
O1227      H1241   0.990       .  S
O1227      H1248   0.989       .  S
O1228      C1232   1.278       .  A
O1229      C1232   1.299       .  A
O1230      H1240   0.989       .  S
O1231      H1244   0.990       .  S
C1232      C2697   1.508       .  S
Zr1255     O1256   2.438       .  S
Zr1255     O1257   2.464       .  S
Zr1255     O1258   2.570       .  S
Zr1255     O1261   2.505       .  S
Zr1255     O1263   2.388       .  S
Zr1255     O1264   2.422       .  S
Zr1255     O1265   2.414       .  S
Zr1255     O1266   2.413       .  S
O1256      H1312   0.990       .  S
O1256      H1320   0.990       .  S
O1257      C1277   1.289       .  A
O1258      C1279   1.311       .  A
O1259     Zr1269   2.424       .  S
O1259      C1278   1.281       .  A
O1260     Zr1268   2.388       .  S
O1260      C1279   1.275       .  A
O1261      C1278   1.299       .  A
O1262     Zr1270   2.434       .  S
O1262      C1277   1.285       .  A
O1263     Zr1268   2.404       .  S
O1263     Zr1270   2.382       .  S
O1264     Zr1269   2.398       .  S
O1264     Zr1270   2.375       .  S
O1264      H1299   0.963       .  S
O1265     Zr1268   2.400       .  S
O1265     Zr1285   2.404       .  S
O1265      H1302   0.965       .  S
O1266     Zr1269   2.408       .  S
O1266     Zr1285   2.352       .  S
Zr1267     O1292   2.439       .  S
Zr1267     O1286   2.421       .  S
Zr1267     O1294   2.428       .  S
Zr1267     O1282   2.400       .  S
Zr1267     O1273   2.391       .  S
Zr1267     O1274   2.409       .  S
Zr1267     O1275   2.381       .  S
Zr1267     O1276   2.377       .  S
Zr1268     O1287   2.439       .  S
Zr1268     O1280   2.435       .  S
Zr1268     O1281   2.439       .  S
Zr1268     O1274   2.389       .  S
Zr1268     O1275   2.370       .  S
Zr1269     O1271   2.434       .  S
Zr1269     O1293   2.436       .  S
Zr1269     O1295   2.504       .  S
Zr1269     O1273   2.376       .  S
Zr1269     O1276   2.362       .  S
Zr1270     O1296   2.437       .  S
Zr1270     O1297   2.434       .  S
Zr1270     O1272   2.437       .  S
Zr1270     O1273   2.407       .  S
Zr1270     O1274   2.409       .  S
O1271      H1308   0.990       .  S
O1272      H1303   0.990       .  S
O1272      H1317   0.990       .  S
O1274      H1300   0.965       .  S
O1275     Zr1285   2.364       .  S
O1276     Zr1285   2.385       .  S
O1276      H1301   0.966       .  S
C1277      C3197   1.492       .  S
C1278      C2766   1.496       .  S
C1279      C2606   1.515       .  S
O1280      H1316   0.990       .  S
O1281      C1283   1.285       .  A
O1282      C1283   1.280       .  A
C1283      C2517   1.477       .  S
O1284     Zr1285   2.436       .  S
O1284      H1313   0.991       .  S
Zr1285     O1288   2.434       .  S
Zr1285     O1289   2.437       .  S
Zr1285     O1290   2.409       .  S
O1286      C1291   1.283       .  A
O1287      H1304   0.990       .  S
O1287      H1319   0.990       .  S
O1288      H1305   0.990       .  S
O1289      H1309   0.990   1_655  S
O1289      H1318   0.990       .  S
O1290      C1291   1.282       .  A
C1291      C2537   1.471   1_655  S
O1292      H1311   0.990       .  S
O1292      H1315   0.990       .  S
O1293      H1307   0.990       .  S
O1293      H1314   0.990       .  S
O1294      C1298   1.284       .  A
O1295      C1298   1.297       .  A
O1296      H1306   0.990       .  S
O1297      H1310   0.990       .  S
C1298      C2617   1.508       .  S
Zr1321     O1322   2.439       .  S
Zr1321     O1323   2.456       .  S
Zr1321     O1324   2.486       .  S
Zr1321     O1327   2.553       .  S
Zr1321     O1329   2.408       .  S
Zr1321     O1330   2.391       .  S
Zr1321     O1331   2.454       .  S
Zr1321     O1332   2.417       .  S
O1322      H1378   0.990       .  S
O1322      H1386   0.990       .  S
O1323      C1343   1.287       .  A
O1324      C1345   1.292       .  A
O1325     Zr1335   2.405       .  S
O1325      C1344   1.279       .  A
O1326     Zr1334   2.421       .  S
O1326      C1345   1.276       .  A
O1327      C1344   1.308       .  A
O1328     Zr1336   2.423       .  S
O1328      C1343   1.282       .  A
O1329     Zr1334   2.418       .  S
O1329     Zr1336   2.368       .  S
O1330     Zr1335   2.402       .  S
O1330     Zr1336   2.379       .  S
O1330      H1365   0.967       .  S
O1331     Zr1334   2.429       .  S
O1331     Zr1351   2.360       .  S
O1331      H1368   0.965       .  S
O1332     Zr1335   2.405       .  S
O1332     Zr1351   2.408       .  S
Zr1333     O1358   2.437       .  S
Zr1333     O1352   2.421       .  S
Zr1333     O1360   2.410       .  S
Zr1333     O1348   2.400       .  S
Zr1333     O1339   2.396       .  S
Zr1333     O1340   2.394       .  S
Zr1333     O1341   2.368       .  S
Zr1333     O1342   2.383       .  S
Zr1334     O1353   2.436       .  S
Zr1334     O1346   2.434       .  S
Zr1334     O1347   2.514       .  S
Zr1334     O1340   2.383       .  S
Zr1334     O1341   2.362       .  S
Zr1335     O1337   2.434       .  S
Zr1335     O1359   2.436       .  S
Zr1335     O1361   2.440       .  S
Zr1335     O1339   2.381       .  S
Zr1335     O1342   2.381       .  S
Zr1336     O1362   2.437       .  S
Zr1336     O1363   2.436       .  S
Zr1336     O1338   2.439       .  S
Zr1336     O1339   2.400       .  S
Zr1336     O1340   2.407       .  S
O1337      H1374   0.990       .  S
O1338      H1369   0.990       .  S
O1338      H1383   0.990       .  S
O1340      H1366   0.966       .  S
O1341     Zr1351   2.374       .  S
O1342     Zr1351   2.356       .  S
O1342      H1367   0.965       .  S
C1343      C3526   1.487       .  S
C1344      C2506   1.519       .  S
C1345      C3406   1.494       .  S
O1346      H1382   0.990       .  S
O1347      C1349   1.300       .  A
O1348      C1349   1.280       .  A
C1349      C2477   1.503       .  S
O1350     Zr1351   2.436       .  S
O1350      H1379   0.990       .  S
Zr1351     O1354   2.439       .  S
Zr1351     O1355   2.442       .  S
Zr1351     O1356   2.423       .  S
O1352      C1357   1.283       .  A
O1353      H1370   0.990       .  S
O1353      H1385   0.990       .  S
O1354      H1371   0.990       .  S
O1355      H1375   0.990       .  S
O1355      H1384   0.990       .  S
O1356      C1357   1.284       .  A
C1357      C2526   1.477       .  S
O1358      H1377   0.990       .  S
O1358      H1381   0.991       .  S
O1359      H1373   0.990       .  S
O1359      H1380   0.990       .  S
O1360      C1364   1.283       .  A
O1361      C1364   1.287       .  A
O1362      H1372   0.990       .  S
O1363      H1376   0.990       .  S
C1364      C2637   1.476       .  S
Zr1387     O1388   2.438   1_565  S
Zr1387     O1389   2.475       .  S
Zr1387     O1390   2.501       .  S
Zr1387     O1393   2.568   1_565  S
Zr1387     O1395   2.405       .  S
Zr1387     O1396   2.399       .  S
Zr1387     O1397   2.452       .  S
Zr1387     O1398   2.412       .  S
O1388      H1444   0.990       .  S
O1388      H1452   0.990       .  S
O1389      C1409   1.291       .  A
O1390      C1411   1.295       .  A
O1391     Zr1401   2.381       .  S
O1391      C1410   1.274   1_565  A
O1392     Zr1400   2.413       .  S
O1392      C1411   1.277       .  A
O1393      C1410   1.311       .  A
O1394     Zr1402   2.414       .  S
O1394      C1409   1.280       .  A
O1395     Zr1400   2.414       .  S
O1395     Zr1402   2.367       .  S
O1396     Zr1401   2.400       .  S
O1396     Zr1402   2.388       .  S
O1396      H1431   0.967       .  S
O1397     Zr1400   2.432       .  S
O1397     Zr1417   2.371       .  S
O1397      H1434   0.965       .  S
O1398     Zr1401   2.403       .  S
O1398     Zr1417   2.399       .  S
Zr1399     O1424   2.438       .  S
Zr1399     O1418   2.405       .  S
Zr1399     O1426   2.391       .  S
Zr1399     O1414   2.413       .  S
Zr1399     O1405   2.394       .  S
Zr1399     O1406   2.388       .  S
Zr1399     O1407   2.373       .  S
Zr1399     O1408   2.384       .  S
Zr1400     O1419   2.436       .  S
Zr1400     O1412   2.434       .  S
Zr1400     O1413   2.502       .  S
Zr1400     O1406   2.383       .  S
Zr1400     O1407   2.366       .  S
Zr1401     O1403   2.439       .  S
Zr1401     O1425   2.435       .  S
Zr1401     O1427   2.425       .  S
Zr1401     O1405   2.374       .  S
Zr1401     O1408   2.379       .  S
Zr1402     O1428   2.437       .  S
Zr1402     O1429   2.434       .  S
Zr1402     O1404   2.436       .  S
Zr1402     O1405   2.395       .  S
Zr1402     O1406   2.400       .  S
O1403      H1440   0.990       .  S
O1404      H1435   0.990       .  S
O1404      H1449   0.990       .  S
O1406      H1432   0.966       .  S
O1407     Zr1417   2.375       .  S
O1408     Zr1417   2.360       .  S
O1408      H1433   0.966       .  S
C1409      C3097   1.487       .  S
C1410      C2497   1.522       .  S
C1411      C2857   1.498       .  S
O1412      H1448   0.990       .  S
O1413      C1415   1.297       .  A
O1414      C1415   1.281       .  A
C1415      C2466   1.502       .  S
O1416     Zr1417   2.436       .  S
O1416      H1445   0.990   1_565  S
Zr1417     O1420   2.437       .  S
Zr1417     O1421   2.439       .  S
Zr1417     O1422   2.419       .  S
O1418      C1423   1.279       .  A
O1419      H1436   0.990       .  S
O1419      H1451   0.990       .  S
O1420      H1437   0.990       .  S
O1421      H1441   0.990       .  S
O1421      H1450   0.990       .  S
O1422      C1423   1.283       .  A
C1423      C2686   1.460       .  S
O1424      H1443   0.990       .  S
O1424      H1447   0.990       .  S
O1425      H1439   0.990       .  S
O1425      H1446   0.990       .  S
O1426      C1430   1.278       .  A
O1427      C1430   1.282       .  A
O1428      H1438   0.990       .  S
O1429      H1442   0.990       .  S
C1430      C2586   1.465       .  S
Zr1453     O1454   2.438       .  S
Zr1453     O1455   2.469       .  S
Zr1453     O1456   2.484       .  S
Zr1453     O1459   2.551       .  S
Zr1453     O1461   2.412       .  S
Zr1453     O1462   2.390       .  S
Zr1453     O1463   2.456       .  S
Zr1453     O1464   2.413       .  S
O1454      H1510   0.990       .  S
O1454      H1518   0.990       .  S
O1455      C1475   1.290       .  A
O1456      C1477   1.290       .  A
O1457     Zr1467   2.397       .  S
O1457      C1476   1.277       .  A
O1458     Zr1466   2.418       .  S
O1458      C1477   1.274       .  A
O1459      C1476   1.308       .  A
O1460     Zr1468   2.418       .  S
O1460      C1475   1.282       .  A
O1461     Zr1466   2.423       .  S
O1461     Zr1468   2.368       .  S
O1462     Zr1467   2.401       .  S
O1462     Zr1468   2.377       .  S
O1462      H1497   0.965       .  S
O1463     Zr1466   2.435       .  S
O1463     Zr1483   2.367       .  S
O1463      H1500   0.964       .  S
O1464     Zr1467   2.402       .  S
O1464     Zr1483   2.400       .  S
Zr1465     O1490   2.439       .  S
Zr1465     O1484   2.424       .  S
Zr1465     O1492   2.393       .  S
Zr1465     O1480   2.411       .  S
Zr1465     O1471   2.406       .  S
Zr1465     O1472   2.397       .  S
Zr1465     O1473   2.373       .  S
Zr1465     O1474   2.379       .  S
Zr1466     O1485   2.439       .  S
Zr1466     O1478   2.435       .  S
Zr1466     O1479   2.509       .  S
Zr1466     O1472   2.387       .  S
Zr1466     O1473   2.373       .  S
Zr1467     O1469   2.435       .  S
Zr1467     O1491   2.438       .  S
Zr1467     O1493   2.436       .  S
Zr1467     O1471   2.386       .  S
Zr1467     O1474   2.375       .  S
Zr1468     O1494   2.439       .  S
Zr1468     O1495   2.436       .  S
Zr1468     O1470   2.436       .  S
Zr1468     O1471   2.401       .  S
Zr1468     O1472   2.409       .  S
O1469      H1506   0.991       .  S
O1470      H1501   0.990       .  S
O1470      H1515   0.990       .  S
O1472      H1498   0.966       .  S
O1473     Zr1483   2.386       .  S
O1474     Zr1483   2.350       .  S
O1474      H1499   0.965       .  S
C1475      C3666   1.495       .  S
C1476      C2437   1.510       .  S
C1477      C3817   1.495       .  S
O1478      H1514   0.990       .  S
O1479      C1481   1.297       .  A
O1480      C1481   1.279       .  A
C1481      C2486   1.501       .  S
O1482     Zr1483   2.437       .  S
O1482      H1511   0.990       .  S
Zr1483     O1486   2.436       .  S
Zr1483     O1487   2.439       .  S
Zr1483     O1488   2.417       .  S
O1484      C1489   1.283       .  A
O1485      H1502   0.989       .  S
O1485      H1517   0.990       .  S
O1486      H1503   0.990       .  S
O1487      H1507   0.990       .  S
O1487      H1516   0.990       .  S
O1488      C1489   1.283       .  A
C1489      C2657   1.478       .  S
O1490      H1509   0.990       .  S
O1490      H1513   0.991       .  S
O1491      H1505   0.988       .  S
O1491      H1512   0.990       .  S
O1492      C1496   1.279       .  A
O1493      C1496   1.285       .  A
O1494      H1504   0.990       .  S
O1495      H1508   0.990       .  S
C1496      C2546   1.469       .  S
Zr1519     O1520   2.437       .  S
Zr1519     O1521   2.465       .  S
Zr1519     O1522   2.482       .  S
Zr1519     O1525   2.560       .  S
Zr1519     O1527   2.408       .  S
Zr1519     O1528   2.389       .  S
Zr1519     O1529   2.450       .  S
Zr1519     O1530   2.409       .  S
O1520      H1576   0.990       .  S
O1520      H1584   0.990       .  S
O1521      C1541   1.289       .  A
O1522      C1543   1.293       .  A
O1523     Zr1533   2.389       .  S
O1523      C1542   1.275       .  A
O1524     Zr1532   2.424       .  S
O1524      C1543   1.278       .  A
O1525      C1542   1.309       .  A
O1526     Zr1534   2.426       .  S
O1526      C1541   1.282       .  A
O1527     Zr1532   2.421       .  S
O1527     Zr1534   2.367       .  S
O1528     Zr1533   2.403       .  S
O1528     Zr1534   2.380       .  S
O1528      H1563   0.965       .  S
O1529     Zr1532   2.428       .  S
O1529     Zr1549   2.363       .  S
O1529      H1566   0.964       .  S
O1530     Zr1533   2.403       .  S
O1530     Zr1549   2.403       .  S
Zr1531     O1556   2.438       .  S
Zr1531     O1550   2.432       .  S
Zr1531     O1558   2.400       .  S
Zr1531     O1546   2.401       .  S
Zr1531     O1537   2.401       .  S
Zr1531     O1538   2.399       .  S
Zr1531     O1539   2.372       .  S
Zr1531     O1540   2.379       .  S
Zr1532     O1551   2.437       .  S
Zr1532     O1544   2.434       .  S
Zr1532     O1545   2.513       .  S
Zr1532     O1538   2.390       .  S
Zr1532     O1539   2.366       .  S
Zr1533     O1535   2.434       .  S
Zr1533     O1557   2.434       .  S
Zr1533     O1559   2.433       .  S
Zr1533     O1537   2.382       .  S
Zr1533     O1540   2.382       .  S
Zr1534     O1560   2.437       .  S
Zr1534     O1561   2.436       .  S
Zr1534     O1536   2.439       .  S
Zr1534     O1537   2.406       .  S
Zr1534     O1538   2.407       .  S
O1535      H1572   0.990       .  S
O1536      H1567   0.990       .  S
O1536      H1581   0.990       .  S
O1538      H1564   0.966       .  S
O1539     Zr1549   2.376       .  S
O1540     Zr1549   2.356       .  S
O1540      H1565   0.965       .  S
C1541      C2786   1.488       .  S
C1542      C2446   1.515       .  S
C1543      C3186   1.488       .  S
O1544      H1580   0.990       .  S
O1545      C1547   1.299       .  A
O1546      C1547   1.278       .  A
C1547      C2457   1.502       .  S
O1548     Zr1549   2.434       .  S
O1548      H1577   0.990       .  S
Zr1549     O1552   2.438       .  S
Zr1549     O1553   2.438       .  S
Zr1549     O1554   2.419       .  S
O1550      C1555   1.284       .  A
O1551      H1568   0.990       .  S
O1551      H1583   0.990       .  S
O1552      H1569   0.990       .  S
O1553      H1573   0.990       .  S
O1553      H1582   0.989       .  S
O1554      C1555   1.283       .  A
C1555      C2557   1.480       .  S
O1556      H1575   0.990       .  S
O1556      H1579   0.990       .  S
O1557      H1571   0.990       .  S
O1557      H1578   0.990       .  S
O1558      C1562   1.281       .  A
O1559      C1562   1.284       .  A
O1560      H1570   0.990       .  S
O1561      H1574   0.990       .  S
C1562      C2726   1.469       .  S
Zr1585     O1586   2.437       .  S
Zr1585     O1587   2.479       .  S
Zr1585     O1588   2.500       .  S
Zr1585     O1591   2.547       .  S
Zr1585     O1593   2.394       .  S
Zr1585     O1594   2.396       .  S
Zr1585     O1595   2.441       .  S
Zr1585     O1596   2.422       .  S
O1586      H1642   0.990       .  S
O1586      H1650   0.990       .  S
O1587      C1607   1.292       .  A
O1588      C1609   1.299       .  A
O1589     Zr1599   2.382       .  S
O1589      C1608   1.273       .  A
O1590     Zr1598   2.432       .  S
O1590      C1609   1.286       .  A
O1591      C1608   1.307       .  A
O1592     Zr1600   2.411       .  S
O1592      C1607   1.280       .  A
O1593     Zr1598   2.406       .  S
O1593     Zr1600   2.380       .  S
O1594     Zr1599   2.406       .  S
O1594     Zr1600   2.379       .  S
O1594      H1629   0.965       .  S
O1595     Zr1598   2.419       .  S
O1595     Zr1615   2.363       .  S
O1595      H1632   0.961       .  S
O1596     Zr1599   2.399       .  S
O1596     Zr1615   2.404       .  S
Zr1597     O1622   2.437       .  S
Zr1597     O1616   2.415       .  S
Zr1597     O1624   2.404       .  S
Zr1597     O1612   2.411       .  S
Zr1597     O1603   2.394       .  S
Zr1597     O1604   2.394       .  S
Zr1597     O1605   2.373       .  S
Zr1597     O1606   2.386       .  S
Zr1598     O1617   2.438       .  S
Zr1598     O1610   2.435       .  S
Zr1598     O1611   2.502       .  S
Zr1598     O1604   2.389       .  S
Zr1598     O1605   2.364       .  S
Zr1599     O1601   2.436       .  S
Zr1599     O1623   2.437       .  S
Zr1599     O1625   2.429       .  S
Zr1599     O1603   2.379       .  S
Zr1599     O1606   2.377       .  S
Zr1600     O1626   2.438       .  S
Zr1600     O1627   2.439       .  S
Zr1600     O1602   2.439       .  S
Zr1600     O1603   2.398       .  S
Zr1600     O1604   2.405       .  S
O1601      H1638   0.990       .  S
O1602      H1633   0.990       .  S
O1602      H1647   0.990       .  S
O1604      H1630   0.966       .  S
O1605     Zr1615   2.374       .  S
O1606     Zr1615   2.348       .  S
O1606      H1631   0.962       .  S
C1607      C3746   1.493       .  S
C1608      C2426   1.502       .  S
C1609      C3446   1.498       .  S
O1610      H1646   0.990       .  S
O1611      C1613   1.297       .  A
O1612      C1613   1.281       .  A
C1613      C2366   1.498       .  S
O1614     Zr1615   2.436       .  S
O1614      H1643   0.990       .  S
Zr1615     O1618   2.436       .  S
Zr1615     O1619   2.443       .  S
Zr1615     O1620   2.425       .  S
O1616      C1621   1.282       .  A
O1617      H1634   0.990       .  S
O1617      H1649   0.990       .  S
O1618      H1635   0.990       .  S
O1619      H1639   0.990       .  S
O1619      H1648   0.990       .  S
O1620      C1621   1.283       .  A
C1621      C2397   1.469       .  S
O1622      H1641   0.990       .  S
O1622      H1645   0.990       .  S
O1623      H1637   0.990       .  S
O1623      H1644   0.990       .  S
O1624      C1628   1.281       .  A
O1625      C1628   1.284       .  A
O1626      H1636   0.990       .  S
O1627      H1640   0.990       .  S
C1628      C2386   1.469       .  S
Zr1651     O1652   2.437       .  S
Zr1651     O1653   2.458       .  S
Zr1651     O1654   2.500       .  S
Zr1651     O1657   2.558       .  S
Zr1651     O1659   2.403       .  S
Zr1651     O1660   2.393       .  S
Zr1651     O1661   2.445       .  S
Zr1651     O1662   2.409       .  S
O1652      H1708   0.990       .  S
O1652      H1716   0.990       .  S
O1653      C1673   1.288       .  A
O1654      C1675   1.296       .  A
O1655     Zr1665   2.384       .  S
O1655      C1674   1.275       .  A
O1656     Zr1664   2.421       .  S
O1656      C1675   1.277       .  A
O1657      C1674   1.309       .  A
O1658     Zr1666   2.426       .  S
O1658      C1673   1.284       .  A
O1659     Zr1664   2.412       .  S
O1659     Zr1666   2.366       .  S
O1660     Zr1665   2.404       .  S
O1660     Zr1666   2.379       .  S
O1660      H1695   0.964       .  S
O1661     Zr1664   2.431       .  S
O1661     Zr1681   2.363       .  S
O1661      H1698   0.963       .  S
O1662     Zr1665   2.405       .  S
O1662     Zr1681   2.402       .  S
Zr1663     O1688   2.438       .  S
Zr1663     O1682   2.416       .  S
Zr1663     O1690   2.407       .  S
Zr1663     O1678   2.410       .  S
Zr1663     O1669   2.396       .  S
Zr1663     O1670   2.391       .  S
Zr1663     O1671   2.369       .  S
Zr1663     O1672   2.378       .  S
Zr1664     O1683   2.437       .  S
Zr1664     O1676   2.435       .  S
Zr1664     O1677   2.496       .  S
Zr1664     O1670   2.390       .  S
Zr1664     O1671   2.368       .  S
Zr1665     O1667   2.437       .  S
Zr1665     O1689   2.436       .  S
Zr1665     O1691   2.437       .  S
Zr1665     O1669   2.385       .  S
Zr1665     O1672   2.378       .  S
Zr1666     O1692   2.438       .  S
Zr1666     O1693   2.436       .  S
Zr1666     O1668   2.436       .  S
Zr1666     O1669   2.403       .  S
Zr1666     O1670   2.400       .  S
O1667      H1704   0.990       .  S
O1668      H1699   0.990       .  S
O1668      H1713   0.990       .  S
O1670      H1696   0.966       .  S
O1671     Zr1681   2.372       .  S
O1672     Zr1681   2.353       .  S
O1672      H1697   0.964       .  S
C1673      C2817   1.495       .  S
C1674      C2417   1.510       .  S
C1675      C2926   1.499       .  S
O1676      H1712   0.990       .  S
O1677      C1679   1.296       .  A
O1678      C1679   1.281       .  A
C1679      C2297   1.497       .  S
O1680     Zr1681   2.434       .  S
O1680      H1709   0.990       .  S
Zr1681     O1684   2.437       .  S
Zr1681     O1685   2.438       .  S
Zr1681     O1686   2.410       .  S
O1682      C1687   1.282       .  A
O1683      H1700   0.990       .  S
O1683      H1715   0.989       .  S
O1684      H1701   0.990       .  S
O1685      H1705   0.990       .  S
O1685      H1714   0.990       .  S
O1686      C1687   1.281       .  A
C1687      C2317   1.472       .  S
O1688      H1707   0.990       .  S
O1688      H1711   0.990       .  S
O1689      H1703   0.990       .  S
O1689      H1710   0.990       .  S
O1690      C1694   1.282       .  A
O1691      C1694   1.285       .  A
O1692      H1702   0.990       .  S
O1693      H1706   0.990       .  S
C1694      C2337   1.474       .  S
Zr1717     O1718   2.437   1_545  S
Zr1717     O1719   2.478       .  S
Zr1717     O1720   2.484       .  S
Zr1717     O1723   2.552       .  S
Zr1717     O1725   2.406       .  S
Zr1717     O1726   2.397       .  S
Zr1717     O1727   2.458       .  S
Zr1717     O1728   2.414       .  S
O1718      H1774   0.990       .  S
O1718      H1782   0.990       .  S
O1719      C1739   1.291       .  A
O1720      C1741   1.291       .  A
O1721     Zr1731   2.389       .  S
O1721      C1740   1.276       .  A
O1722     Zr1730   2.420       .  S
O1722      C1741   1.276       .  A
O1723      C1740   1.307       .  A
O1724     Zr1732   2.414       .  S
O1724      C1739   1.282       .  A
O1725     Zr1730   2.406       .  S
O1725     Zr1732   2.364       .  S
O1726     Zr1731   2.400       .  S
O1726     Zr1732   2.386       .  S
O1726      H1761   0.967       .  S
O1727     Zr1730   2.429       .  S
O1727     Zr1747   2.372       .  S
O1727      H1764   0.965       .  S
O1728     Zr1731   2.406       .  S
O1728     Zr1747   2.403       .  S
Zr1729     O1754   2.437       .  S
Zr1729     O1748   2.404       .  S
Zr1729     O1756   2.403       .  S
Zr1729     O1744   2.411       .  S
Zr1729     O1735   2.393       .  S
Zr1729     O1736   2.397       .  S
Zr1729     O1737   2.372       .  S
Zr1729     O1738   2.386       .  S
Zr1730     O1749   2.439       .  S
Zr1730     O1742   2.434       .  S
Zr1730     O1743   2.496       .  S
Zr1730     O1736   2.391       .  S
Zr1730     O1737   2.360       .  S
Zr1731     O1733   2.439       .  S
Zr1731     O1755   2.436       .  S
Zr1731     O1757   2.440       .  S
Zr1731     O1735   2.369       .  S
Zr1731     O1738   2.385       .  S
Zr1732     O1758   2.437       .  S
Zr1732     O1759   2.437       .  S
Zr1732     O1734   2.437       .  S
Zr1732     O1735   2.398       .  S
Zr1732     O1736   2.404       .  S
O1733      H1770   0.990       .  S
O1734      H1765   0.991       .  S
O1734      H1779   0.990       .  S
O1736      H1762   0.967       .  S
O1737     Zr1747   2.373       .  S
O1738     Zr1747   2.347       .  S
O1738      H1763   0.964       .  S
C1739      C3586   1.497       .  S
C1740      C2277   1.516   1_545  S
C1741      C3926   1.494       .  S
O1742      H1778   0.990       .  S
O1743      C1745   1.296       .  A
O1744      C1745   1.281       .  A
C1745      C2357   1.496       .  S
O1746     Zr1747   2.436       .  S
O1746      H1775   0.990       .  S
Zr1747     O1750   2.436   1_655  S
Zr1747     O1751   2.437       .  S
Zr1747     O1752   2.435   1_655  S
O1748      C1753   1.280   1_655  A
O1749      H1766   0.989       .  S
O1749      H1781   0.990       .  S
O1750      H1767   0.991       .  S
O1751      H1771   0.990       .  S
O1751      H1780   0.990       .  S
O1752      C1753   1.286       .  A
C1753      C2257   1.475       .  S
O1754      H1773   0.990       .  S
O1754      H1777   0.990       .  S
O1755      H1769   0.990       .  S
O1755      H1776   0.990       .  S
O1756      C1760   1.281       .  A
O1757      C1760   1.285       .  A
O1758      H1768   0.990       .  S
O1759      H1772   0.990       .  S
C1760      C2237   1.458       .  S
Zr1783     O1784   2.438       .  S
Zr1783     O1785   2.478       .  S
Zr1783     O1786   2.481       .  S
Zr1783     O1789   2.545       .  S
Zr1783     O1791   2.402       .  S
Zr1783     O1792   2.389       .  S
Zr1783     O1793   2.443       .  S
Zr1783     O1794   2.413       .  S
O1784      H1840   0.990       .  S
O1784      H1848   0.990       .  S
O1785      C1805   1.292       .  A
O1786      C1807   1.294       .  A
O1787     Zr1797   2.383       .  S
O1787      C1806   1.275       .  A
O1788     Zr1796   2.432       .  S
O1788      C1807   1.284       .  A
O1789      C1806   1.306       .  A
O1790     Zr1798   2.413       .  S
O1790      C1805   1.281       .  A
O1791     Zr1796   2.413       .  S
O1791     Zr1798   2.382       .  S
O1792     Zr1797   2.395       .  S
O1792     Zr1798   2.382       .  S
O1792      H1827   0.967       .  S
O1793     Zr1796   2.417       .  S
O1793     Zr1813   2.369       .  S
O1793      H1830   0.962       .  S
O1794     Zr1797   2.396       .  S
O1794     Zr1813   2.401       .  S
Zr1795     O1820   2.441       .  S
Zr1795     O1814   2.405       .  S
Zr1795     O1822   2.406       .  S
Zr1795     O1810   2.411       .  S
Zr1795     O1801   2.393       .  S
Zr1795     O1802   2.395       .  S
Zr1795     O1803   2.376       .  S
Zr1795     O1804   2.379       .  S
Zr1796     O1815   2.440       .  S
Zr1796     O1808   2.433       .  S
Zr1796     O1809   2.493       .  S
Zr1796     O1802   2.395       .  S
Zr1796     O1803   2.373       .  S
Zr1797     O1799   2.437       .  S
Zr1797     O1821   2.434       .  S
Zr1797     O1823   2.414       .  S
Zr1797     O1801   2.381       .  S
Zr1797     O1804   2.377       .  S
Zr1798     O1824   2.437       .  S
Zr1798     O1825   2.438       .  S
Zr1798     O1800   2.436       .  S
Zr1798     O1801   2.393       .  S
Zr1798     O1802   2.402       .  S
O1799      H1836   0.990       .  S
O1800      H1831   0.990       .  S
O1800      H1845   0.990       .  S
O1802      H1828   0.967       .  S
O1803     Zr1813   2.375       .  S
O1804     Zr1813   2.350       .  S
O1804      H1829   0.965       .  S
C1805      C3026   1.492       .  S
C1806      C2286   1.512       .  S
C1807      C3286   1.481       .  S
O1808      H1844   0.990       .  S
O1809      C1811   1.295       .  A
O1810      C1811   1.280       .  A
C1811      C2306   1.497       .  S
O1812     Zr1813   2.436       .  S
O1812      H1841   0.990       .  S
Zr1813     O1816   2.436       .  S
Zr1813     O1817   2.437       .  S
Zr1813     O1818   2.428       .  S
O1814      C1819   1.280       .  A
O1815      H1832   0.990       .  S
O1815      H1847   0.990       .  S
O1816      H1833   0.989       .  S
O1817      H1837   0.990       .  S
O1817      H1846   0.990       .  S
O1818      C1819   1.285       .  A
C1819      C2197   1.474       .  S
O1820      H1839   0.990       .  S
O1820      H1843   0.990       .  S
O1821      H1835   0.990       .  S
O1821      H1842   0.990       .  S
O1822      C1826   1.281       .  A
O1823      C1826   1.280       .  A
O1824      H1834   0.990       .  S
O1825      H1838   0.990       .  S
C1826      C2217   1.452       .  S
Zr1849     O1850   2.438   1_565  S
Zr1849     O1851   2.445   1_565  S
Zr1849     O1852   2.553   1_565  S
Zr1849     O1855   2.490   1_565  S
Zr1849     O1857   2.388       .  S
Zr1849     O1858   2.418       .  S
Zr1849     O1859   2.409       .  S
Zr1849     O1860   2.415       .  S
O1850      H1906   0.990       .  S
O1850      H1914   0.990       .  S
O1851      C1871   1.285   1_545  A
O1852      C1873   1.306       .  A
O1853     Zr1863   2.419       .  S
O1853      C1872   1.279       .  A
O1854     Zr1862   2.393       .  S
O1854      C1873   1.277   1_565  A
O1855      C1872   1.296   1_545  A
O1856     Zr1864   2.431       .  S
O1856      C1871   1.283       .  A
O1857     Zr1862   2.398       .  S
O1857     Zr1864   2.377       .  S
O1858     Zr1863   2.405       .  S
O1858     Zr1864   2.372       .  S
O1858      H1893   0.965       .  S
O1859     Zr1862   2.401       .  S
O1859     Zr1879   2.399       .  S
O1859      H1896   0.965       .  S
O1860     Zr1863   2.419       .  S
O1860     Zr1879   2.368       .  S
Zr1861     O1886   2.440       .  S
Zr1861     O1880   2.419       .  S
Zr1861     O1888   2.417       .  S
Zr1861     O1876   2.405       .  S
Zr1861     O1867   2.401       .  S
Zr1861     O1868   2.402       .  S
Zr1861     O1869   2.377       .  S
Zr1861     O1870   2.376       .  S
Zr1862     O1881   2.438       .  S
Zr1862     O1874   2.436       .  S
Zr1862     O1875   2.424       .  S
Zr1862     O1868   2.389       .  S
Zr1862     O1869   2.372       .  S
Zr1863     O1865   2.437       .  S
Zr1863     O1887   2.436       .  S
Zr1863     O1889   2.504       .  S
Zr1863     O1867   2.391       .  S
Zr1863     O1870   2.357       .  S
Zr1864     O1890   2.437       .  S
Zr1864     O1891   2.435       .  S
Zr1864     O1866   2.439       .  S
Zr1864     O1867   2.412       .  S
Zr1864     O1868   2.403       .  S
O1865      H1902   0.990       .  S
O1866      H1897   0.990       .  S
O1866      H1911   0.990       .  S
O1868      H1894   0.965       .  S
O1869     Zr1879   2.363       .  S
O1870     Zr1879   2.381       .  S
O1870      H1895   0.964       .  S
C1871      C3946   1.475   1_565  S
C1872      C3566   1.486   1_565  S
C1873      C2177   1.510       .  S
O1874      H1910   0.990       .  S
O1875      C1877   1.283       .  A
O1876      C1877   1.281       .  A
C1877      C2326   1.472       .  S
O1878     Zr1879   2.438   1_545  S
O1878      H1907   0.990       .  S
Zr1879     O1882   2.436       .  S
Zr1879     O1883   2.440       .  S
Zr1879     O1884   2.401       .  S
O1880      C1885   1.282       .  A
O1881      H1898   0.990       .  S
O1881      H1913   0.990       .  S
O1882      H1899   0.990       .  S
O1883      H1903   0.990       .  S
O1883      H1912   0.990       .  S
O1884      C1885   1.280       .  A
C1885      C2226   1.454       .  S
O1886      H1905   0.990       .  S
O1886      H1909   0.990       .  S
O1887      H1901   0.990       .  S
O1887      H1908   0.990       .  S
O1888      C1892   1.281       .  A
O1889      C1892   1.297       .  A
O1890      H1900   0.990       .  S
O1891      H1904   0.990       .  S
C1892      C2157   1.501       .  S
Zr1915     O1916   2.437       .  S
Zr1915     O1917   2.450       .  S
Zr1915     O1918   2.543       .  S
Zr1915     O1921   2.492       .  S
Zr1915     O1923   2.383       .  S
Zr1915     O1924   2.418       .  S
Zr1915     O1925   2.412       .  S
Zr1915     O1926   2.399       .  S
O1916      H1972   0.990       .  S
O1916      H1980   0.990       .  S
O1917      C1937   1.287       .  A
O1918      C1939   1.304       .  A
O1919     Zr1929   2.422       .  S
O1919      C1938   1.282       .  A
O1920     Zr1928   2.391       .  S
O1920      C1939   1.274       .  A
O1921      C1938   1.297       .  A
O1922     Zr1930   2.441       .  S
O1922      C1937   1.285       .  A
O1923     Zr1928   2.396       .  S
O1923     Zr1930   2.378       .  S
O1924     Zr1929   2.399       .  S
O1924     Zr1930   2.376       .  S
O1924      H1959   0.965       .  S
O1925     Zr1928   2.403       .  S
O1925     Zr1945   2.406       .  S
O1925      H1962   0.966       .  S
O1926     Zr1929   2.405       .  S
O1926     Zr1945   2.354       .  S
Zr1927     O1952   2.440       .  S
Zr1927     O1946   2.430       .  S
Zr1927     O1954   2.410       .  S
Zr1927     O1942   2.410       .  S
Zr1927     O1933   2.405       .  S
Zr1927     O1934   2.406       .  S
Zr1927     O1935   2.373       .  S
Zr1927     O1936   2.377       .  S
Zr1928     O1947   2.441       .  S
Zr1928     O1940   2.436       .  S
Zr1928     O1941   2.429       .  S
Zr1928     O1934   2.388       .  S
Zr1928     O1935   2.376       .  S
Zr1929     O1931   2.436       .  S
Zr1929     O1953   2.435       .  S
Zr1929     O1955   2.501       .  S
Zr1929     O1933   2.380       .  S
Zr1929     O1936   2.362       .  S
Zr1930     O1956   2.438       .  S
Zr1930     O1957   2.436       .  S
Zr1930     O1932   2.437       .  S
Zr1930     O1933   2.410       .  S
Zr1930     O1934   2.413       .  S
O1931      H1968   0.990       .  S
O1932      H1963   0.990       .  S
O1932      H1977   0.990       .  S
O1934      H1960   0.965       .  S
O1935     Zr1945   2.366       .  S
O1936     Zr1945   2.379       .  S
O1936      H1961   0.964       .  S
C1937      C2946   1.486       .  S
C1938      C2806   1.481       .  S
C1939      C2186   1.503       .  S
O1940      H1976   0.990       .  S
O1941      C1943   1.284       .  A
O1942      C1943   1.282       .  A
C1943      C2266   1.476       .  S
O1944     Zr1945   2.433       .  S
O1944      H1973   0.990       .  S
Zr1945     O1948   2.434       .  S
Zr1945     O1949   2.439       .  S
Zr1945     O1950   2.411       .  S
O1946      C1951   1.285       .  A
O1947      H1964   0.990       .  S
O1947      H1979   0.990       .  S
O1948      H1965   0.990       .  S
O1949      H1969   0.990       .  S
O1949      H1978   0.990       .  S
O1950      C1951   1.282       .  A
C1951      C2377   1.473       .  S
O1952      H1971   0.990       .  S
O1952      H1975   0.990       .  S
O1953      H1967   0.990       .  S
O1953      H1974   0.990       .  S
O1954      C1958   1.280       .  A
O1955      C1958   1.296       .  A
O1956      H1966   0.990       .  S
O1957      H1970   0.990       .  S
C1958      C2137   1.494       .  S
Zr1981     O1982   2.437       .  S
Zr1981     O1983   2.463       .  S
Zr1981     O1984   2.556       .  S
Zr1981     O1987   2.489       .  S
Zr1981     O1989   2.380       .  S
Zr1981     O1990   2.420       .  S
Zr1981     O1991   2.415       .  S
Zr1981     O1992   2.408       .  S
O1982      H2038   0.990       .  S
O1982      H2046   0.990       .  S
O1983      C2003   1.290       .  A
O1984      C2005   1.308       .  A
O1985     Zr1995   2.435       .  S
O1985      C2004   1.281       .  A
O1986     Zr1994   2.390       .  S
O1986      C2005   1.275       .  A
O1987      C2004   1.296       .  A
O1988     Zr1996   2.432       .  S
O1988      C2003   1.285       .  A
O1989     Zr1994   2.400       .  S
O1989     Zr1996   2.378       .  S
O1990     Zr1995   2.401       .  S
O1990     Zr1996   2.379       .  S
O1990      H2025   0.964       .  S
O1991     Zr1994   2.400       .  S
O1991     Zr2011   2.413       .  S
O1991      H2028   0.966       .  S
O1992     Zr1995   2.405       .  S
O1992     Zr2011   2.355       .  S
Zr1993     O2018   2.437       .  S
Zr1993     O2012   2.415       .  S
Zr1993     O2020   2.401       .  S
Zr1993     O2008   2.399       .  S
Zr1993     O1999   2.392       .  S
Zr1993     O2000   2.400       .  S
Zr1993     O2001   2.373       .  S
Zr1993     O2002   2.378       .  S
Zr1994     O2013   2.441       .  S
Zr1994     O2006   2.434       .  S
Zr1994     O2007   2.427       .  S
Zr1994     O2000   2.390       .  S
Zr1994     O2001   2.371       .  S
Zr1995     O1997   2.435       .  S
Zr1995     O2019   2.435       .  S
Zr1995     O2021   2.506       .  S
Zr1995     O1999   2.381       .  S
Zr1995     O2002   2.369       .  S
Zr1996     O2022   2.435       .  S
Zr1996     O2023   2.435       .  S
Zr1996     O1998   2.438       .  S
Zr1996     O1999   2.406       .  S
Zr1996     O2000   2.408       .  S
O1997      H2034   0.990       .  S
O1998      H2029   0.990       .  S
O1998      H2043   0.990       .  S
O2000      H2026   0.966       .  S
O2001     Zr2011   2.359       .  S
O2002     Zr2011   2.388       .  S
O2002      H2027   0.966       .  S
C2003      C3466   1.492       .  S
C2004      C3726   1.482       .  S
C2005      C2117   1.509       .  S
O2006      H2042   0.989       .  S
O2007      C2009   1.284       .  A
O2008      C2009   1.279       .  A
C2009      C2206   1.472       .  S
O2010     Zr2011   2.435       .  S
O2010      H2039   0.990       .  S
Zr2011     O2014   2.434       .  S
Zr2011     O2015   2.438       .  S
Zr2011     O2016   2.419       .  S
O2012      C2017   1.282       .  A
O2013      H2030   0.990       .  S
O2013      H2045   0.990       .  S
O2014      H2031   0.990       .  S
O2015      H2035   0.990       .  S
O2015      H2044   0.989       .  S
O2016      C2017   1.283       .  A
C2017      C2346   1.472       .  S
O2018      H2037   0.990       .  S
O2018      H2041   0.990       .  S
O2019      H2033   0.990       .  S
O2019      H2040   0.990       .  S
O2020      C2024   1.279       .  A
O2021      C2024   1.297       .  A
O2022      H2032   0.990       .  S
O2023      H2036   0.990       .  S
C2024      C2166   1.498       .  S
Zr2047     O2048   2.437       .  S
Zr2047     O2049   2.466       .  S
Zr2047     O2050   2.566       .  S
Zr2047     O2053   2.509       .  S
Zr2047     O2055   2.386       .  S
Zr2047     O2056   2.417       .  S
Zr2047     O2057   2.413       .  S
Zr2047     O2058   2.410       .  S
O2048      H2104   0.990       .  S
O2048      H2112   0.990       .  S
O2049      C2069   1.290       .  A
O2050      C2071   1.310       .  A
O2051     Zr2061   2.411       .  S
O2051      C2070   1.282       .  A
O2052     Zr2060   2.369       .  S
O2052      C2071   1.271       .  A
O2053      C2070   1.300       .  A
O2054     Zr2062   2.419       .  S
O2054      C2069   1.283       .  A
O2055     Zr2060   2.393       .  S
O2055     Zr2062   2.376       .  S
O2056     Zr2061   2.389       .  S
O2056     Zr2062   2.381       .  S
O2056      H2091   0.964       .  S
O2057     Zr2060   2.404       .  S
O2057     Zr2077   2.414       .  S
O2057      H2094   0.965       .  S
O2058     Zr2061   2.410       .  S
O2058     Zr2077   2.369       .  S
Zr2059     O2084   2.438       .  S
Zr2059     O2078   2.411       .  S
Zr2059     O2086   2.428       .  S
Zr2059     O2074   2.422       .  S
Zr2059     O2065   2.400       .  S
Zr2059     O2066   2.402       .  S
Zr2059     O2067   2.375       .  S
Zr2059     O2068   2.374       .  S
Zr2060     O2079   2.439       .  S
Zr2060     O2072   2.437       .  S
Zr2060     O2073   2.409       .  S
Zr2060     O2066   2.383       .  S
Zr2060     O2067   2.375       .  S
Zr2061     O2063   2.436       .  S
Zr2061     O2085   2.435       .  S
Zr2061     O2087   2.479       .  S
Zr2061     O2065   2.376       .  S
Zr2061     O2068   2.356       .  S
Zr2062     O2088   2.437       .  S
Zr2062     O2089   2.437       .  S
Zr2062     O2064   2.436       .  S
Zr2062     O2065   2.404       .  S
Zr2062     O2066   2.403       .  S
O2063      H2100   0.990       .  S
O2064      H2095   0.990       .  S
O2064      H2109   0.990       .  S
O2066      H2092   0.965       .  S
O2067     Zr2077   2.367       .  S
O2068     Zr2077   2.375       .  S
O2068      H2093   0.964       .  S
C2069      C3306   1.492       .  S
C2070      C3006   1.496       .  S
C2071      C2126   1.506       .  S
O2072      H2108   0.990       .  S
O2073      C2075   1.279       .  A
O2074      C2075   1.284       .  A
C2075      C2406   1.458       .  S
O2076     Zr2077   2.437       .  S
O2076      H2105   0.990       .  S
Zr2077     O2080   2.434       .  S
Zr2077     O2081   2.440       .  S
Zr2077     O2082   2.427       .  S
O2078      C2083   1.281       .  A
O2079      H2096   0.990       .  S
O2079      H2111   0.990       .  S
O2080      H2097   0.989       .  S
O2081      H2101   0.990       .  S
O2081      H2110   0.990       .  S
O2082      C2083   1.285       .  A
C2083      C2246   1.460       .  S
O2084      H2103   0.990       .  S
O2084      H2107   0.990       .  S
O2085      H2099   0.990       .  S
O2085      H2106   0.990       .  S
O2086      C2090   1.285       .  A
O2087      C2090   1.292       .  A
O2088      H2098   0.990       .  S
O2089      H2102   0.990       .  S
C2090      C2146   1.497       .  S
C2113      C2114   1.412       .  A
C2113      C2118   1.412       .  A
C2113      H2123   1.083       .  S
C2114      C2119   1.528       .  S
C2114      C2115   1.415       .  A
C2115      C2116   1.421       .  A
C2115      H2120   1.082       .  S
C2116      C2117   1.412       .  A
C2116      H2121   1.083       .  S
C2117      C2118   1.410       .  A
C2118      H2122   1.083       .  S
C2119      C2124   1.412       .  A
C2119      C2128   1.414       .  A
C2124      C2125   1.412       .  A
C2124      H2129   1.082       .  S
C2125      C2126   1.410       .  A
C2125      H2130   1.083       .  S
C2126      C2127   1.413       .  A
C2127      C2128   1.421       .  A
C2127      H2131   1.083       .  S
C2128      H2132   1.083       .  S
C2133      C2134   1.410       .  A
C2133      C2138   1.409       .  A
C2133      H2143   1.083       .  S
C2134      C2139   1.501       .  S
C2134      C2135   1.406       .  A
C2135      C2136   1.406       .  A
C2135      H2140   1.083       .  S
C2136      C2137   1.409       .  A
C2136      H2141   1.083       .  S
C2137      C2138   1.406       .  A
C2138      H2142   1.083       .  S
C2139      C2144   1.406       .  A
C2139      C2148   1.410   1_455  A
C2144      C2145   1.404   1_455  A
C2144      H2149   1.083       .  S
C2145      C2146   1.408       .  A
C2145      H2150   1.083       .  S
C2146      C2147   1.408       .  A
C2147      C2148   1.410       .  A
C2147      H2151   1.083       .  S
C2148      H2152   1.083       .  S
C2153      C2154   1.408       .  A
C2153      C2158   1.406       .  A
C2153      H2163   1.083       .  S
C2154      C2159   1.511       .  S
C2154      C2155   1.414       .  A
C2155      C2156   1.412       .  A
C2155      H2160   1.083       .  S
C2156      C2157   1.407       .  A
C2156      H2161   1.083       .  S
C2157      C2158   1.410       .  A
C2158      H2162   1.083       .  S
C2159      C2164   1.415       .  A
C2159      C2168   1.407       .  A
C2164      C2165   1.414       .  A
C2164      H2169   1.082       .  S
C2165      C2166   1.407       .  A
C2165      H2170   1.083       .  S
C2166      C2167   1.409       .  A
C2167      C2168   1.404       .  A
C2167      H2171   1.083       .  S
C2168      H2172   1.083       .  S
C2173      C2174   1.416       .  A
C2173      C2178   1.424       .  A
C2173      H2183   1.082       .  S
C2174      C2179   1.525       .  S
C2174      C2175   1.410       .  A
C2175      C2176   1.407       .  A
C2175      H2180   1.083       .  S
C2176      C2177   1.410       .  A
C2176      H2181   1.084       .  S
C2177      C2178   1.412       .  A
C2178      H2182   1.083       .  S
C2179      C2184   1.412       .  A
C2179      C2188   1.414       .  A
C2184      C2185   1.408       .  A
C2184      H2189   1.082       .  S
C2185      C2186   1.407       .  A
C2185      H2190   1.083       .  S
C2186      C2187   1.413       .  A
C2187      C2188   1.421       .  A
C2187      H2191   1.083       .  S
C2188      H2192   1.082       .  S
C2193      C2194   1.406       .  A
C2193      C2198   1.395       .  A
C2193      H2203   1.083       .  S
C2194      C2199   1.481       .  S
C2194      C2195   1.406       .  A
C2195      C2196   1.390       .  A
C2195      H2200   1.082       .  S
C2196      C2197   1.401       .  A
C2196      H2201   1.083       .  S
C2197      C2198   1.407       .  A
C2198      H2202   1.083       .  S
C2199      C2204   1.405       .  A
C2199      C2208   1.407       .  A
C2204      C2205   1.390       .  A
C2204      H2209   1.082       .  S
C2205      C2206   1.405       .  A
C2205      H2210   1.083       .  S
C2206      C2207   1.403       .  A
C2207      C2208   1.394       .  A
C2207      H2211   1.083       .  S
C2208      H2212   1.083       .  S
C2213      C2214   1.410       .  A
C2213      C2218   1.390       .  A
C2213      H2223   1.082       .  S
C2214      C2219   1.473       .  S
C2214      C2215   1.403       .  A
C2215      C2216   1.389       .  A
C2215      H2220   1.083       .  S
C2216      C2217   1.401       .  A
C2216      H2221   1.084       .  S
C2217      C2218   1.396       .  A
C2218      H2222   1.084       .  S
C2219      C2224   1.403       .  A
C2219      C2228   1.409       .  A
C2224      C2225   1.388       .  A
C2224      H2229   1.083       .  S
C2225      C2226   1.402       .  A
C2225      H2230   1.084       .  S
C2226      C2227   1.397       .  A
C2227      C2228   1.391       .  A
C2227      H2231   1.084       .  S
C2228      H2232   1.082       .  S
C2233      C2234   1.409       .  A
C2233      C2238   1.390       .  A
C2233      H2243   1.082       .  S
C2234      C2239   1.477       .  S
C2234      C2235   1.405       .  A
C2235      C2236   1.392       .  A
C2235      H2240   1.083       .  S
C2236      C2237   1.403       .  A
C2236      H2241   1.084       .  S
C2237      C2238   1.396       .  A
C2238      H2242   1.083       .  S
C2239      C2244   1.408       .  A
C2239      C2248   1.405       .  A
C2244      C2245   1.391       .  A
C2244      H2249   1.082       .  S
C2245      C2246   1.399       .  A
C2245      H2250   1.084       .  S
C2246      C2247   1.402       .  A
C2247      C2248   1.392       .  A
C2247      H2251   1.083       .  S
C2248      H2252   1.083       .  S
C2253      C2254   1.406       .  A
C2253      C2258   1.391       .  A
C2253      H2263   1.082       .  S
C2254      C2259   1.481       .  S
C2254      C2255   1.406       .  A
C2255      C2256   1.395       .  A
C2255      H2260   1.083       .  S
C2256      C2257   1.407       .  A
C2256      H2261   1.083       .  S
C2257      C2258   1.402       .  A
C2258      H2262   1.083       .  S
C2259      C2264   1.404       .  A
C2259      C2268   1.407       .  A
C2264      C2265   1.389       .  A
C2264      H2269   1.082       .  S
C2265      C2266   1.405       .  A
C2265      H2270   1.083       .  S
C2266      C2267   1.405       .  A
C2267      C2268   1.397       .  A
C2267      H2271   1.083       .  S
C2268      H2272   1.083       .  S
C2273      C2274   1.408       .  A
C2273      C2278   1.409       .  A
C2273      H2283   1.082       .  S
C2274      C2279   1.530       .  S
C2274      C2275   1.421       .  A
C2275      C2276   1.420       .  A
C2275      H2280   1.081       .  S
C2276      C2277   1.407       .  A
C2276      H2281   1.083       .  S
C2277      C2278   1.416       .  A
C2278      H2282   1.083   1_565  S
C2279      C2284   1.422       .  A
C2279      C2288   1.408       .  A
C2284      C2285   1.421       .  A
C2284      H2289   1.081       .  S
C2285      C2286   1.406       .  A
C2285      H2290   1.083       .  S
C2286      C2287   1.414       .  A
C2287      C2288   1.407       .  A
C2287      H2291   1.084       .  S
C2288      H2292   1.082       .  S
C2293      C2294   1.403       .  A
C2293      C2298   1.401       .  A
C2293      H2303   1.083       .  S
C2294      C2299   1.499       .  S
C2294      C2295   1.412       .  A
C2295      C2296   1.414       .  A
C2295      H2300   1.083       .  S
C2296      C2297   1.408       .  A
C2296      H2301   1.083       .  S
C2297      C2298   1.409       .  A
C2298      H2302   1.083       .  S
C2299      C2304   1.403       .  A
C2299      C2308   1.411       .  A
C2304      C2305   1.403       .  A
C2304      H2309   1.083       .  S
C2305      C2306   1.411       .  A
C2305      H2310   1.083       .  S
C2306      C2307   1.407       .  A
C2307      C2308   1.412       .  A
C2307      H2311   1.083       .  S
C2308      H2312   1.083       .  S
C2313      C2314   1.406       .  A
C2313      C2318   1.395       .  A
C2313      H2323   1.083       .  S
C2314      C2319   1.476       .  S
C2314      C2315   1.403       .  A
C2315      C2316   1.388       .  A
C2315      H2320   1.082       .  S
C2316      C2317   1.405       .  A
C2316      H2321   1.083       .  S
C2317      C2318   1.404       .  A
C2318      H2322   1.083       .  S
C2319      C2324   1.404       .  A
C2319      C2328   1.405       .  A
C2324      C2325   1.389       .  A
C2324      H2329   1.083       .  S
C2325      C2326   1.404       .  A
C2325      H2330   1.083       .  S
C2326      C2327   1.404       .  A
C2327      C2328   1.395       .  A
C2327      H2331   1.083       .  S
C2328      H2332   1.083       .  S
C2333      C2334   1.406       .  A
C2333      C2338   1.398       .  A
C2333      H2343   1.083       .  S
C2334      C2339   1.476       .  S
C2334      C2335   1.403       .  A
C2335      C2336   1.386       .  A
C2335      H2340   1.083       .  S
C2336      C2337   1.404       .  A
C2336      H2341   1.083       .  S
C2337      C2338   1.406       .  A
C2338      H2342   1.083       .  S
C2339      C2344   1.406       .  A
C2339      C2348   1.404       .  A
C2344      C2345   1.394       .  A
C2344      H2349   1.083       .  S
C2345      C2346   1.405       .  A
C2345      H2350   1.083       .  S
C2346      C2347   1.404       .  A
C2347      C2348   1.390       .  A
C2347      H2351   1.083       .  S
C2348      H2352   1.083       .  S
C2353      C2354   1.413       .  A
C2353      C2358   1.413       .  A
C2353      H2363   1.083       .  S
C2354      C2359   1.506       .  S
C2354      C2355   1.406   1_455  A
C2355      C2356   1.403       .  A
C2355      H2360   1.083       .  S
C2356      C2357   1.408       .  A
C2356      H2361   1.083       .  S
C2357      C2358   1.407   1_655  A
C2358      H2362   1.083       .  S
C2359      C2364   1.413       .  A
C2359      C2368   1.407       .  A
C2364      C2365   1.412       .  A
C2364      H2369   1.083   1_455  S
C2365      C2366   1.407       .  A
C2365      H2370   1.083       .  S
C2366      C2367   1.409       .  A
C2367      C2368   1.405       .  A
C2367      H2371   1.083       .  S
C2368      H2372   1.083       .  S
C2373      C2374   1.405       .  A
C2373      C2378   1.395       .  A
C2373      H2383   1.083       .  S
C2374      C2379   1.472       .  S
C2374      C2375   1.403       .  A
C2375      C2376   1.388       .  A
C2375      H2380   1.083       .  S
C2376      C2377   1.405       .  A
C2376      H2381   1.083       .  S
C2377      C2378   1.405       .  A
C2378      H2382   1.083       .  S
C2379      C2384   1.403       .  A
C2379      C2388   1.406       .  A
C2384      C2385   1.385       .  A
C2384      H2389   1.083       .  S
C2385      C2386   1.404       .  A
C2385      H2390   1.083       .  S
C2386      C2387   1.404       .  A
C2387      C2388   1.396       .  A
C2387      H2391   1.083       .  S
C2388      H2392   1.083       .  S
C2393      C2394   1.408       .  A
C2393      C2398   1.392   1_655  A
C2393      H2403   1.083       .  S
C2394      C2399   1.477       .  S
C2394      C2395   1.403       .  A
C2395      C2396   1.393       .  A
C2395      H2400   1.083       .  S
C2396      C2397   1.405   1_655  A
C2396      H2401   1.083       .  S
C2397      C2398   1.401       .  A
C2398      H2402   1.083       .  S
C2399      C2404   1.409       .  A
C2399      C2408   1.404       .  A
C2404      C2405   1.393       .  A
C2404      H2409   1.083       .  S
C2405      C2406   1.398       .  A
C2405      H2410   1.084       .  S
C2406      C2407   1.401       .  A
C2407      C2408   1.393       .  A
C2407      H2411   1.084       .  S
C2408      H2412   1.083       .  S
C2413      C2414   1.411       .  A
C2413      C2418   1.411       .  A
C2413      H2423   1.083       .  S
C2414      C2419   1.527       .  S
C2414      C2415   1.416       .  A
C2415      C2416   1.421       .  A
C2415      H2420   1.082       .  S
C2416      C2417   1.410       .  A
C2416      H2421   1.083       .  S
C2417      C2418   1.412       .  A
C2418      H2422   1.084       .  S
C2419      C2424   1.414       .  A
C2419      C2428   1.412       .  A
C2424      C2425   1.413       .  A
C2424      H2429   1.082       .  S
C2425      C2426   1.406       .  A
C2425      H2430   1.083       .  S
C2426      C2427   1.414       .  A
C2427      C2428   1.417       .  A
C2427      H2431   1.083       .  S
C2428      H2432   1.083       .  S
C2433      C2434   1.413       .  A
C2433      C2438   1.420       .  A
C2433      H2443   1.083       .  S
C2434      C2439   1.531       .  S
C2434      C2435   1.415       .  A
C2435      C2436   1.416       .  A
C2435      H2440   1.082       .  S
C2436      C2437   1.408       .  A
C2436      H2441   1.083       .  S
C2437      C2438   1.414       .  A
C2438      H2442   1.083       .  S
C2439      C2444   1.418       .  A
C2439      C2448   1.411       .  A
C2444      C2445   1.425       .  A
C2444      H2449   1.082       .  S
C2445      C2446   1.412       .  A
C2445      H2450   1.083       .  S
C2446      C2447   1.412       .  A
C2447      C2448   1.411       .  A
C2447      H2451   1.083       .  S
C2448      H2452   1.083       .  S
C2453      C2454   1.406       .  A
C2453      C2458   1.403       .  A
C2453      H2463   1.083       .  S
C2454      C2459   1.510       .  S
C2454      C2455   1.415       .  A
C2455      C2456   1.415       .  A
C2455      H2460   1.083       .  S
C2456      C2457   1.407       .  A
C2456      H2461   1.083       .  S
C2457      C2458   1.411       .  A
C2458      H2462   1.084       .  S
C2459      C2464   1.407       .  A
C2459      C2468   1.414       .  A
C2464      C2465   1.407       .  A
C2464      H2469   1.083       .  S
C2465      C2466   1.411       .  A
C2465      H2470   1.083       .  S
C2466      C2467   1.406       .  A
C2467      C2468   1.413       .  A
C2467      H2471   1.083       .  S
C2468      H2472   1.083       .  S
C2473      C2474   1.405       .  A
C2473      C2478   1.403   1_455  A
C2473      H2483   1.083       .  S
C2474      C2479   1.509       .  S
C2474      C2475   1.414   1_455  A
C2475      C2476   1.416       .  A
C2475      H2480   1.083       .  S
C2476      C2477   1.408       .  A
C2476      H2481   1.083       .  S
C2477      C2478   1.412       .  A
C2478      H2482   1.083       .  S
C2479      C2484   1.406       .  A
C2479      C2488   1.413       .  A
C2484      C2485   1.407       .  A
C2484      H2489   1.083       .  S
C2485      C2486   1.411       .  A
C2485      H2490   1.083       .  S
C2486      C2487   1.407       .  A
C2487      C2488   1.414       .  A
C2487      H2491   1.083       .  S
C2488      H2492   1.083       .  S
C2493      C2494   1.408       .  A
C2493      C2498   1.411       .  A
C2493      H2503   1.082       .  S
C2494      C2499   1.535       .  S
C2494      C2495   1.423       .  A
C2495      C2496   1.425       .  A
C2495      H2500   1.082       .  S
C2496      C2497   1.408       .  A
C2496      H2501   1.082       .  S
C2497      C2498   1.418       .  A
C2498      H2502   1.083       .  S
C2499      C2504   1.422       .  A
C2499      C2508   1.409       .  A
C2504      C2505   1.424       .  A
C2504      H2509   1.082       .  S
C2505      C2506   1.410       .  A
C2505      H2510   1.083       .  S
C2506      C2507   1.413       .  A
C2507      C2508   1.413       .  A
C2507      H2511   1.083       .  S
C2508      H2512   1.082       .  S
C2513      C2514   1.405       .  A
C2513      C2518   1.388       .  A
C2513      H2523   1.082       .  S
C2514      C2519   1.484       .  S
C2514      C2515   1.408       .  A
C2515      C2516   1.399       .  A
C2515      H2520   1.083       .  S
C2516      C2517   1.405       .  A
C2516      H2521   1.083       .  S
C2517      C2518   1.405       .  A
C2518      H2522   1.083       .  S
C2519      C2524   1.408       .  A
C2519      C2528   1.405       .  A
C2524      C2525   1.397       .  A
C2524      H2529   1.083       .  S
C2525      C2526   1.405       .  A
C2525      H2530   1.083       .  S
C2526      C2527   1.404       .  A
C2527      C2528   1.390       .  A
C2527      H2531   1.083       .  S
C2528      H2532   1.082       .  S
C2533      C2534   1.405       .  A
C2533      C2538   1.396       .  A
C2533      H2543   1.083       .  S
C2534      C2539   1.476       .  S
C2534      C2535   1.404       .  A
C2535      C2536   1.386       .  A
C2535      H2540   1.083       .  S
C2536      C2537   1.403       .  A
C2536      H2541   1.083       .  S
C2537      C2538   1.405       .  A
C2538      H2542   1.083       .  S
C2539      C2544   1.403       .  A
C2539      C2548   1.406       .  A
C2544      C2545   1.390       .  A
C2544      H2549   1.083       .  S
C2545      C2546   1.406       .  A
C2545      H2550   1.083       .  S
C2546      C2547   1.402       .  A
C2547      C2548   1.392       .  A
C2547      H2551   1.083       .  S
C2548      H2552   1.083       .  S
C2553      C2554   1.403       .  A
C2553      C2558   1.390       .  A
C2553      H2563   1.083       .  S
C2554      C2559   1.480       .  S
C2554      C2555   1.407       .  A
C2555      C2556   1.399       .  A
C2555      H2560   1.083       .  S
C2556      C2557   1.406       .  A
C2556      H2561   1.083       .  S
C2557      C2558   1.406       .  A
C2558      H2562   1.083       .  S
C2559      C2564   1.407       .  A
C2559      C2568   1.404       .  A
C2564      C2565   1.396       .  A
C2564      H2569   1.083       .  S
C2565      C2566   1.405       .  A
C2565      H2570   1.083       .  S
C2566      C2567   1.404       .  A
C2567      C2568   1.391       .  A
C2567      H2571   1.083       .  S
C2568      H2572   1.083       .  S
C2573      C2574   1.404       .  A
C2573      C2578   1.391       .  A
C2573      H2583   1.083       .  S
C2574      C2579   1.467       .  S
C2574      C2575   1.401       .  A
C2575      C2576   1.388       .  A
C2575      H2580   1.083       .  S
C2576      C2577   1.405       .  A
C2576      H2581   1.083       .  S
C2577      C2578   1.403       .  A
C2578      H2582   1.083       .  S
C2579      C2584   1.403       .  A
C2579      C2588   1.404       .  A
C2584      C2585   1.394       .  A
C2584      H2589   1.083       .  S
C2585      C2586   1.405       .  A
C2585      H2590   1.083       .  S
C2586      C2587   1.402       .  A
C2587      C2588   1.384       .  A
C2587      H2591   1.083       .  S
C2588      H2592   1.083       .  S
C2593      C2594   1.414       .  A
C2593      C2598   1.414       .  A
C2593      H2603   1.082       .  S
C2594      C2599   1.535       .  S
C2594      C2595   1.417       .  A
C2595      C2596   1.423       .  A
C2595      H2600   1.082       .  S
C2596      C2597   1.413       .  A
C2596      H2601   1.083       .  S
C2597      C2598   1.410       .  A
C2598      H2602   1.083       .  S
C2599      C2604   1.414       .  A
C2599      C2608   1.416       .  A
C2604      C2605   1.415       .  A
C2604      H2609   1.082       .  S
C2605      C2606   1.412       .  A
C2605      H2610   1.083       .  S
C2606      C2607   1.413       .  A
C2607      C2608   1.423       .  A
C2607      H2611   1.083       .  S
C2608      H2612   1.082       .  S
C2613      C2614   1.414       .  A
C2613      C2618   1.417       .  A
C2613      H2623   1.083       .  S
C2614      C2619   1.512       .  S
C2614      C2615   1.407   1_455  A
C2615      C2616   1.407       .  A
C2615      H2620   1.083       .  S
C2616      C2617   1.410       .  A
C2616      H2621   1.083       .  S
C2617      C2618   1.410   1_655  A
C2618      H2622   1.083       .  S
C2619      C2624   1.408       .  A
C2619      C2628   1.413       .  A
C2624      C2625   1.409       .  A
C2624      H2629   1.083       .  S
C2625      C2626   1.411       .  A
C2625      H2630   1.083       .  S
C2626      C2627   1.407       .  A
C2627      C2628   1.413       .  A
C2627      H2631   1.083       .  S
C2628      H2632   1.083   1_455  S
C2633      C2634   1.406       .  A
C2633      C2638   1.392       .  A
C2633      H2643   1.083       .  S
C2634      C2639   1.477       .  S
C2634      C2635   1.404       .  A
C2635      C2636   1.394       .  A
C2635      H2640   1.083       .  S
C2636      C2637   1.405       .  A
C2636      H2641   1.083       .  S
C2637      C2638   1.405       .  A
C2638      H2642   1.083       .  S
C2639      C2644   1.405       .  A
C2639      C2648   1.405       .  A
C2644      C2645   1.390       .  A
C2644      H2649   1.083       .  S
C2645      C2646   1.403   1_655  A
C2645      H2650   1.083       .  S
C2646      C2647   1.406       .  A
C2647      C2648   1.395   1_455  A
C2647      H2651   1.083       .  S
C2648      H2652   1.083       .  S
C2653      C2654   1.405       .  A
C2653      C2658   1.393       .  A
C2653      H2663   1.082       .  S
C2654      C2659   1.482       .  S
C2654      C2655   1.406       .  A
C2655      C2656   1.396       .  A
C2655      H2660   1.083       .  S
C2656      C2657   1.406       .  A
C2656      H2661   1.083       .  S
C2657      C2658   1.405       .  A
C2658      H2662   1.083       .  S
C2659      C2664   1.407       .  A
C2659      C2668   1.404       .  A
C2664      C2665   1.398       .  A
C2664      H2669   1.083       .  S
C2665      C2666   1.406       .  A
C2665      H2670   1.083       .  S
C2666      C2667   1.405       .  A
C2667      C2668   1.390       .  A
C2667      H2671   1.083       .  S
C2668      H2672   1.082       .  S
C2673      C2674   1.409       .  A
C2673      C2678   1.388       .  A
C2673      H2683   1.081       .  S
C2674      C2679   1.481       .  S
C2674      C2675   1.406       .  A
C2675      C2676   1.393       .  A
C2675      H2680   1.082       .  S
C2676      C2677   1.403       .  A
C2676      H2681   1.084       .  S
C2677      C2678   1.397       .  A
C2678      H2682   1.084       .  S
C2679      C2684   1.409       .  A
C2679      C2688   1.406       .  A
C2684      C2685   1.392       .  A
C2684      H2689   1.081       .  S
C2685      C2686   1.400       .  A
C2685      H2690   1.084       .  S
C2686      C2687   1.400       .  A
C2687      C2688   1.390       .  A
C2687      H2691   1.084       .  S
C2688      H2692   1.082       .  S
C2693      C2694   1.406       .  A
C2693      C2698   1.405       .  A
C2693      H2703   1.083       .  S
C2694      C2699   1.514       .  S
C2694      C2695   1.416       .  A
C2695      C2696   1.418       .  A
C2695      H2700   1.082       .  S
C2696      C2697   1.409       .  A
C2696      H2701   1.083       .  S
C2697      C2698   1.412       .  A
C2698      H2702   1.083       .  S
C2699      C2704   1.415       .  A
C2699      C2708   1.408       .  A
C2704      C2705   1.414       .  A
C2704      H2709   1.083       .  S
C2705      C2706   1.407       .  A
C2705      H2710   1.083       .  S
C2706      C2707   1.409       .  A
C2707      C2708   1.408       .  A
C2707      H2711   1.083       .  S
C2708      H2712   1.082       .  S
C2713      C2714   1.403       .  A
C2713      C2718   1.391       .  A
C2713      H2723   1.083       .  S
C2714      C2719   1.476       .  S
C2714      C2715   1.407       .  A
C2715      C2716   1.393       .  A
C2715      H2720   1.083       .  S
C2716      C2717   1.402       .  A
C2716      H2721   1.083       .  S
C2717      C2718   1.404       .  A
C2718      H2722   1.083       .  S
C2719      C2724   1.404       .  A
C2719      C2728   1.406       .  A
C2724      C2725   1.385       .  A
C2724      H2729   1.083       .  S
C2725      C2726   1.402       .  A
C2725      H2730   1.083       .  S
C2726      C2727   1.405       .  A
C2727      C2728   1.398       .  A
C2727      H2731   1.083       .  S
C2728      H2732   1.083       .  S
C2733      C2734   1.411       .  A
C2733      C2738   1.416       .  A
C2733      H2743   1.082       .  S
C2734      C2739   1.531       .  S
C2734      C2735   1.418       .  A
C2735      C2736   1.417       .  A
C2735      H2740   1.082       .  S
C2736      C2737   1.408       .  A
C2736      H2741   1.083       .  S
C2737      C2738   1.412       .  A
C2738      H2742   1.083       .  S
C2739      C2744   1.421       .  A
C2739      C2748   1.409       .  A
C2744      C2745   1.426       .  A
C2744      H2749   1.082       .  S
C2745      C2746   1.411       .  A
C2745      H2750   1.082       .  S
C2746      C2747   1.414       .  A
C2747      C2748   1.408       .  A
C2747      H2751   1.084       .  S
C2748      H2752   1.082       .  S
C2753      C2754   1.409   1_556  A
C2753      C2758   1.403   1_556  A
C2753      H2763   1.082       .  S
C2754      C2759   1.505   1_454  S
C2754      C2755   1.413       .  A
C2755      C2756   1.402       .  A
C2755      H2760   1.081       .  S
C2756      C2757   1.403       .  A
C2756      H2761   1.084       .  S
C2757      C2758   1.406       .  A
C2758      H2762   1.083   1_554  S
C2759      C2764   1.415       .  A
C2759      C2768   1.405       .  A
C2764      C2765   1.410       .  A
C2764      H2769   1.082       .  S
C2765      C2766   1.406       .  A
C2765      H2770   1.083       .  S
C2766      C2767   1.409       .  A
C2767      C2768   1.395       .  A
C2767      H2771   1.083       .  S
C2768      H2772   1.081   1_556  S
C2773      C2774   1.409       .  A
C2773      C2778   1.409       .  A
C2773      H2783   1.083   1_554  S
C2774      C2779   1.492   1_554  S
C2774      C2775   1.403       .  A
C2775      C2776   1.397       .  A
C2775      H2780   1.083       .  S
C2776      C2777   1.406       .  A
C2776      H2781   1.083       .  S
C2777      C2778   1.407       .  A
C2778      H2782   1.083       .  S
C2779      C2784   1.407       .  A
C2779      C2788   1.405       .  A
C2784      C2785   1.405       .  A
C2784      H2789   1.083   1_556  S
C2785      C2786   1.405       .  A
C2785      H2790   1.083       .  S
C2786      C2787   1.408       .  A
C2787      C2788   1.405       .  A
C2787      H2791   1.083       .  S
C2788      H2792   1.083       .  S
C2793      C2794   1.414       .  A
C2793      C2798   1.407       .  A
C2793      H2803   1.082       .  S
C2794      C2799   1.504       .  S
C2794      C2795   1.406       .  A
C2795      C2796   1.399       .  A
C2795      H2800   1.082       .  S
C2796      C2797   1.408       .  A
C2796      H2801   1.083       .  S
C2797      C2798   1.407       .  A
C2798      H2802   1.083       .  S
C2799      C2804   1.408       .  A
C2799      C2808   1.413       .  A
C2804      C2805   1.399       .  A
C2804      H2809   1.082       .  S
C2805      C2806   1.406       .  A
C2805      H2810   1.084       .  S
C2806      C2807   1.403       .  A
C2807      C2808   1.405       .  A
C2807      H2811   1.083       .  S
C2808      H2812   1.082       .  S
C2813      C2814   1.403       .  A
C2813      C2818   1.396       .  A
C2813      H2823   1.084       .  S
C2814      C2819   1.488       .  S
C2814      C2815   1.406       .  A
C2815      C2816   1.409       .  A
C2815      H2820   1.083       .  S
C2816      C2817   1.411       .  A
C2816      H2821   1.083       .  S
C2817      C2818   1.408       .  A
C2818      H2822   1.083       .  S
C2819      C2824   1.402       .  A
C2819      C2828   1.406       .  A
C2824      C2825   1.395       .  A
C2824      H2829   1.084       .  S
C2825      C2826   1.409       .  A
C2825      H2830   1.083       .  S
C2826      C2827   1.410       .  A
C2827      C2828   1.409       .  A
C2827      H2831   1.083       .  S
C2828      H2832   1.083       .  S
C2833      C2834   1.413       .  A
C2833      C2838   1.413       .  A
C2833      H2843   1.082       .  S
C2834      C2839   1.536       .  S
C2834      C2835   1.419       .  A
C2835      C2836   1.425       .  A
C2835      H2840   1.082       .  S
C2836      C2837   1.412       .  A
C2836      H2841   1.083       .  S
C2837      C2838   1.410       .  A
C2838      H2842   1.083       .  S
C2839      C2844   1.417       .  A
C2839      C2848   1.415       .  A
C2844      C2845   1.418       .  A
C2844      H2849   1.082       .  S
C2845      C2846   1.410       .  A
C2845      H2850   1.083       .  S
C2846      C2847   1.412       .  A
C2847      C2848   1.421       .  A
C2847      H2851   1.083       .  S
C2848      H2852   1.082       .  S
C2853      C2854   1.405   1_565  A
C2853      C2858   1.399       .  A
C2853      H2863   1.082   1_556  S
C2854      C2859   1.507   1_556  S
C2854      C2855   1.415       .  A
C2855      C2856   1.409       .  A
C2855      H2860   1.082       .  S
C2856      C2857   1.406   1_545  A
C2856      H2861   1.083       .  S
C2857      C2858   1.411       .  A
C2858      H2862   1.083       .  S
C2859      C2864   1.414       .  A
C2859      C2868   1.408   1_554  A
C2864      C2865   1.406       .  A
C2864      H2869   1.082   1_545  S
C2865      C2866   1.404       .  A
C2865      H2870   1.083       .  S
C2866      C2867   1.408       .  A
C2867      C2868   1.401   1_554  A
C2867      H2871   1.083       .  S
C2868      H2872   1.082       .  S
C2873      C2874   1.406       .  A
C2873      C2878   1.405       .  A
C2873      H2883   1.083       .  S
C2874      C2879   1.487   1_556  S
C2874      C2875   1.403       .  A
C2875      C2876   1.400       .  A
C2875      H2880   1.083       .  S
C2876      C2877   1.408       .  A
C2876      H2881   1.083       .  S
C2877      C2878   1.407       .  A
C2878      H2882   1.083       .  S
C2879      C2884   1.404       .  A
C2879      C2888   1.405       .  A
C2884      C2885   1.400       .  A
C2884      H2889   1.083       .  S
C2885      C2886   1.406       .  A
C2885      H2890   1.083       .  S
C2886      C2887   1.407       .  A
C2887      C2888   1.404       .  A
C2887      H2891   1.083       .  S
C2888      H2892   1.083   1_554  S
C2893      C2894   1.406       .  A
C2893      C2898   1.396       .  A
C2893      H2903   1.083       .  S
C2894      C2899   1.482       .  S
C2894      C2895   1.407       .  A
C2895      C2896   1.390       .  A
C2895      H2900   1.082       .  S
C2896      C2897   1.401       .  A
C2896      H2901   1.083       .  S
C2897      C2898   1.407       .  A
C2898      H2902   1.083       .  S
C2899      C2904   1.405       .  A
C2899      C2908   1.407       .  A
C2904      C2905   1.392       .  A
C2904      H2909   1.082       .  S
C2905      C2906   1.406       .  A
C2905      H2910   1.083       .  S
C2906      C2907   1.404       .  A
C2907      C2908   1.394       .  A
C2907      H2911   1.083       .  S
C2908      H2912   1.083       .  S
C2913      C2914   1.407       .  A
C2913      C2918   1.399       .  A
C2913      H2923   1.082       .  S
C2914      C2919   1.506       .  S
C2914      C2915   1.413       .  A
C2915      C2916   1.411       .  A
C2915      H2920   1.082       .  S
C2916      C2917   1.407       .  A
C2916      H2921   1.083       .  S
C2917      C2918   1.405       .  A
C2918      H2922   1.083       .  S
C2919      C2924   1.413       .  A
C2919      C2928   1.406       .  A
C2924      C2925   1.406       .  A
C2924      H2929   1.082       .  S
C2925      C2926   1.405       .  A
C2925      H2930   1.083       .  S
C2926      C2927   1.413       .  A
C2927      C2928   1.404       .  A
C2927      H2931   1.083       .  S
C2928      H2932   1.082       .  S
C2933      C2934   1.406       .  A
C2933      C2938   1.401       .  A
C2933      H2943   1.083       .  S
C2934      C2939   1.490       .  S
C2934      C2935   1.407   1_545  A
C2935      C2936   1.403       .  A
C2935      H2940   1.083       .  S
C2936      C2937   1.405       .  A
C2936      H2941   1.083       .  S
C2937      C2938   1.406   1_565  A
C2938      H2942   1.083       .  S
C2939      C2944   1.406       .  A
C2939      C2948   1.406       .  A
C2944      C2945   1.403       .  A
C2944      H2949   1.083       .  S
C2945      C2946   1.407       .  A
C2945      H2950   1.083       .  S
C2946      C2947   1.405       .  A
C2947      C2948   1.402       .  A
C2947      H2951   1.083       .  S
C2948      H2952   1.083   1_545  S
C2953      C2954   1.408       .  A
C2953      C2958   1.396       .  A
C2953      H2963   1.083       .  S
C2954      C2959   1.476       .  S
C2954      C2955   1.402       .  A
C2955      C2956   1.387       .  A
C2955      H2960   1.083       .  S
C2956      C2957   1.405       .  A
C2956      H2961   1.083       .  S
C2957      C2958   1.403       .  A
C2958      H2962   1.083       .  S
C2959      C2964   1.403       .  A
C2959      C2968   1.406       .  A
C2964      C2965   1.387       .  A
C2964      H2969   1.083       .  S
C2965      C2966   1.405       .  A
C2965      H2970   1.083       .  S
C2966      C2967   1.405       .  A
C2967      C2968   1.397       .  A
C2967      H2971   1.083       .  S
C2968      H2972   1.083       .  S
C2973      C2974   1.414       .  A
C2973      C2978   1.424       .  A
C2973      H2983   1.083       .  S
C2974      C2979   1.527       .  S
C2974      C2975   1.411       .  A
C2975      C2976   1.413       .  A
C2975      H2980   1.083       .  S
C2976      C2977   1.410       .  A
C2976      H2981   1.083       .  S
C2977      C2978   1.415       .  A
C2978      H2982   1.083       .  S
C2979      C2984   1.415       .  A
C2979      C2988   1.410       .  A
C2984      C2985   1.425       .  A
C2984      H2989   1.083       .  S
C2985      C2986   1.415       .  A
C2985      H2990   1.083       .  S
C2986      C2987   1.411       .  A
C2987      C2988   1.412       .  A
C2987      H2991   1.083       .  S
C2988      H2992   1.083       .  S
C2993      C2994   1.409       .  A
C2993      C2998   1.404       .  A
C2993      H3003   1.082       .  S
C2994      C2999   1.503       .  S
C2994      C2995   1.411       .  A
C2995      C2996   1.402       .  A
C2995      H3000   1.082       .  S
C2996      C2997   1.403       .  A
C2996      H3001   1.084       .  S
C2997      C2998   1.406       .  A
C2998      H3002   1.083       .  S
C2999      C3004   1.414       .  A
C2999      C3008   1.405       .  A
C3004      C3005   1.410       .  A
C3004      H3009   1.082       .  S
C3005      C3006   1.406       .  A
C3005      H3010   1.083       .  S
C3006      C3007   1.410       .  A
C3007      C3008   1.396       .  A
C3007      H3011   1.083       .  S
C3008      H3012   1.082       .  S
C3013      C3014   1.409       .  A
C3013      C3018   1.407       .  A
C3013      H3023   1.083       .  S
C3014      C3019   1.498       .  S
C3014      C3015   1.406       .  A
C3015      C3016   1.404       .  A
C3015      H3020   1.083   1_545  S
C3016      C3017   1.407       .  A
C3016      H3021   1.083       .  S
C3017      C3018   1.406       .  A
C3018      H3022   1.083       .  S
C3019      C3024   1.409   1_545  A
C3019      C3028   1.406       .  A
C3024      C3025   1.409       .  A
C3024      H3029   1.083       .  S
C3025      C3026   1.407       .  A
C3025      H3030   1.083       .  S
C3026      C3027   1.408       .  A
C3027      C3028   1.402   1_565  A
C3027      H3031   1.083   1_565  S
C3028      H3032   1.083       .  S
C3033      C3034   1.413       .  A
C3033      C3038   1.413       .  A
C3033      H3043   1.083       .  S
C3034      C3039   1.508       .  S
C3034      C3035   1.407       .  A
C3035      C3036   1.405       .  A
C3035      H3040   1.083       .  S
C3036      C3037   1.409       .  A
C3036      H3041   1.083       .  S
C3037      C3038   1.407       .  A
C3038      H3042   1.083       .  S
C3039      C3044   1.413       .  A
C3039      C3048   1.407       .  A
C3044      C3045   1.412       .  A
C3044      H3049   1.083       .  S
C3045      C3046   1.406       .  A
C3045      H3050   1.083       .  S
C3046      C3047   1.409       .  A
C3047      C3048   1.405       .  A
C3047      H3051   1.083       .  S
C3048      H3052   1.083       .  S
C3053      C3054   1.402       .  A
C3053      C3058   1.388       .  A
C3053      H3063   1.083       .  S
C3054      C3059   1.474       .  S
C3054      C3055   1.410       .  A
C3055      C3056   1.393       .  A
C3055      H3060   1.082       .  S
C3056      C3057   1.396       .  A
C3056      H3061   1.083       .  S
C3057      C3058   1.403       .  A
C3058      H3062   1.083       .  S
C3059      C3064   1.403       .  A
C3059      C3068   1.408       .  A
C3064      C3065   1.389       .  A
C3064      H3069   1.083       .  S
C3065      C3066   1.401       .  A
C3065      H3070   1.084       .  S
C3066      C3067   1.398       .  A
C3067      C3068   1.390       .  A
C3067      H3071   1.084       .  S
C3068      H3072   1.082       .  S
C3073      C3074   1.413   1_554  A
C3073      C3078   1.408       .  A
C3073      H3083   1.082   1_655  S
C3074      C3079   1.504   1_655  S
C3074      C3075   1.405   1_545  A
C3075      C3076   1.401   1_556  A
C3075      H3080   1.082       .  S
C3076      C3077   1.410       .  A
C3076      H3081   1.082       .  S
C3077      C3078   1.406   1_565  A
C3078      H3082   1.083       .  S
C3079      C3084   1.407       .  A
C3079      C3088   1.412       .  A
C3084      C3085   1.402       .  A
C3084      H3089   1.083   1_556  S
C3085      C3086   1.408       .  A
C3085      H3090   1.083       .  S
C3086      C3087   1.405       .  A
C3087      C3088   1.408       .  A
C3087      H3091   1.083       .  S
C3088      H3092   1.082   1_545  S
C3093      C3094   1.406   1_545  A
C3093      C3098   1.405   1_545  A
C3093      H3103   1.083   1_556  S
C3094      C3099   1.487   1_556  S
C3094      C3095   1.404       .  A
C3095      C3096   1.402       .  A
C3095      H3100   1.083       .  S
C3096      C3097   1.408       .  A
C3096      H3101   1.083       .  S
C3097      C3098   1.406       .  A
C3098      H3102   1.083   1_565  S
C3099      C3104   1.407   1_565  A
C3099      C3108   1.404       .  A
C3104      C3105   1.405       .  A
C3104      H3109   1.083   1_554  S
C3105      C3106   1.406   1_545  A
C3105      H3110   1.083       .  S
C3106      C3107   1.405       .  A
C3107      C3108   1.399       .  A
C3107      H3111   1.083       .  S
C3108      H3112   1.083       .  S
C3113      C3114   1.408       .  A
C3113      C3118   1.392       .  A
C3113      H3123   1.082       .  S
C3114      C3119   1.478       .  S
C3114      C3115   1.405       .  A
C3115      C3116   1.392       .  A
C3115      H3120   1.083       .  S
C3116      C3117   1.402       .  A
C3116      H3121   1.083       .  S
C3117      C3118   1.400       .  A
C3118      H3122   1.084   1_455  S
C3119      C3124   1.409       .  A
C3119      C3128   1.405       .  A
C3124      C3125   1.391       .  A
C3124      H3129   1.082       .  S
C3125      C3126   1.398       .  A
C3125      H3130   1.084       .  S
C3126      C3127   1.402       .  A
C3127      C3128   1.392       .  A
C3127      H3131   1.084       .  S
C3128      H3132   1.083       .  S
C3133      C3134   1.419       .  A
C3133      C3138   1.419       .  A
C3133      H3143   1.082       .  S
C3134      C3139   1.526       .  S
C3134      C3135   1.408       .  A
C3135      C3136   1.411       .  A
C3135      H3140   1.082       .  S
C3136      C3137   1.414       .  A
C3136      H3141   1.084       .  S
C3137      C3138   1.407       .  A
C3138      H3142   1.083       .  S
C3139      C3144   1.407       .  A
C3139      C3148   1.420       .  A
C3144      C3145   1.408       .  A
C3144      H3149   1.082       .  S
C3145      C3146   1.414       .  A
C3145      H3150   1.083       .  S
C3146      C3147   1.409       .  A
C3147      C3148   1.422       .  A
C3147      H3151   1.083       .  S
C3148      H3152   1.082       .  S
C3153      C3154   1.413   1_455  A
C3153      C3158   1.415   1_455  A
C3153      H3163   1.083       .  S
C3154      C3159   1.510   1_655  S
C3154      C3155   1.406       .  A
C3155      C3156   1.405       .  A
C3155      H3160   1.083       .  S
C3156      C3157   1.412       .  A
C3156      H3161   1.083       .  S
C3157      C3158   1.410       .  A
C3158      H3162   1.083       .  S
C3159      C3164   1.413       .  A
C3159      C3168   1.408       .  A
C3164      C3165   1.412       .  A
C3164      H3169   1.083   1_455  S
C3165      C3166   1.407       .  A
C3165      H3170   1.083       .  S
C3166      C3167   1.409       .  A
C3167      C3168   1.408       .  A
C3167      H3171   1.083       .  S
C3168      H3172   1.083       .  S
C3173      C3174   1.407       .  A
C3173      C3178   1.396       .  A
C3173      H3183   1.081   1_554  S
C3174      C3179   1.507   1_554  S
C3174      C3175   1.414       .  A
C3175      C3176   1.410       .  A
C3175      H3180   1.082       .  S
C3176      C3177   1.407       .  A
C3176      H3181   1.083       .  S
C3177      C3178   1.409       .  A
C3178      H3182   1.083       .  S
C3179      C3184   1.412       .  A
C3179      C3188   1.411   1_556  A
C3184      C3185   1.400       .  A
C3184      H3189   1.081       .  S
C3185      C3186   1.402       .  A
C3185      H3190   1.083       .  S
C3186      C3187   1.408       .  A
C3187      C3188   1.406   1_556  A
C3187      H3191   1.083       .  S
C3188      H3192   1.082       .  S
C3193      C3194   1.406       .  A
C3193      C3198   1.407       .  A
C3193      H3203   1.083       .  S
C3194      C3199   1.488   1_556  S
C3194      C3195   1.403       .  A
C3195      C3196   1.397       .  A
C3195      H3200   1.083       .  S
C3196      C3197   1.410       .  A
C3196      H3201   1.083       .  S
C3197      C3198   1.409       .  A
C3198      H3202   1.083       .  S
C3199      C3204   1.403       .  A
C3199      C3208   1.406       .  A
C3204      C3205   1.398       .  A
C3204      H3209   1.083       .  S
C3205      C3206   1.411       .  A
C3205      H3210   1.083       .  S
C3206      C3207   1.408       .  A
C3207      C3208   1.406       .  A
C3207      H3211   1.083       .  S
C3208      H3212   1.083       .  S
C3213      C3214   1.408       .  A
C3213      C3218   1.404       .  A
C3213      H3223   1.083       .  S
C3214      C3219   1.509       .  S
C3214      C3215   1.413       .  A
C3215      C3216   1.413       .  A
C3215      H3220   1.083       .  S
C3216      C3217   1.407       .  A
C3216      H3221   1.083       .  S
C3217      C3218   1.408       .  A
C3218      H3222   1.083       .  S
C3219      C3224   1.413       .  A
C3219      C3228   1.408       .  A
C3224      C3225   1.411       .  A
C3224      H3229   1.083       .  S
C3225      C3226   1.407       .  A
C3225      H3230   1.083       .  S
C3226      C3227   1.409       .  A
C3227      C3228   1.407       .  A
C3227      H3231   1.083       .  S
C3228      H3232   1.083       .  S
C3233      C3234   1.405       .  A
C3233      C3238   1.390       .  A
C3233      H3243   1.083       .  S
C3234      C3239   1.475       .  S
C3234      C3235   1.404       .  A
C3235      C3236   1.393       .  A
C3235      H3240   1.083       .  S
C3236      C3237   1.406       .  A
C3236      H3241   1.083       .  S
C3237      C3238   1.403       .  A
C3238      H3242   1.083       .  S
C3239      C3244   1.405       .  A
C3239      C3248   1.405       .  A
C3244      C3245   1.394       .  A
C3244      H3249   1.083       .  S
C3245      C3246   1.406       .  A
C3245      H3250   1.083       .  S
C3246      C3247   1.403       .  A
C3247      C3248   1.388       .  A
C3247      H3251   1.083       .  S
C3248      H3252   1.083       .  S
C3253      C3254   1.408       .  A
C3253      C3258   1.391       .  A
C3253      H3263   1.082       .  S
C3254      C3259   1.481       .  S
C3254      C3255   1.406       .  A
C3255      C3256   1.393       .  A
C3255      H3260   1.083       .  S
C3256      C3257   1.402       .  A
C3256      H3261   1.084       .  S
C3257      C3258   1.399       .  A
C3258      H3262   1.084       .  S
C3259      C3264   1.409       .  A
C3259      C3268   1.406       .  A
C3264      C3265   1.392       .  A
C3264      H3269   1.082       .  S
C3265      C3266   1.398       .  A
C3265      H3270   1.083       .  S
C3266      C3267   1.401       .  A
C3267      C3268   1.393       .  A
C3267      H3271   1.083       .  S
C3268      H3272   1.083       .  S
C3273      C3274   1.415       .  A
C3273      C3278   1.410       .  A
C3273      H3283   1.082       .  S
C3274      C3279   1.506       .  S
C3274      C3275   1.405       .  A
C3275      C3276   1.396       .  A
C3275      H3280   1.082       .  S
C3276      C3277   1.411       .  A
C3276      H3281   1.083       .  S
C3277      C3278   1.406       .  A
C3278      H3282   1.083       .  S
C3279      C3284   1.410       .  A
C3279      C3288   1.413       .  A
C3284      C3285   1.404       .  A
C3284      H3289   1.082       .  S
C3285      C3286   1.405       .  A
C3285      H3290   1.083       .  S
C3286      C3287   1.403       .  A
C3287      C3288   1.402       .  A
C3287      H3291   1.084       .  S
C3288      H3292   1.081       .  S
C3293      C3294   1.406       .  A
C3293      C3298   1.408       .  A
C3293      H3303   1.083       .  S
C3294      C3299   1.486       .  S
C3294      C3295   1.403       .  A
C3295      C3296   1.393       .  A
C3295      H3300   1.084       .  S
C3296      C3297   1.408       .  A
C3296      H3301   1.083       .  S
C3297      C3298   1.410       .  A
C3298      H3302   1.083       .  S
C3299      C3304   1.402       .  A
C3299      C3308   1.406       .  A
C3304      C3305   1.393       .  A
C3304      H3309   1.084       .  S
C3305      C3306   1.408       .  A
C3305      H3310   1.083       .  S
C3306      C3307   1.410       .  A
C3307      C3308   1.408       .  A
C3307      H3311   1.083       .  S
C3308      H3312   1.083       .  S
C3313      C3314   1.413   1_655  A
C3313      C3318   1.413       .  A
C3313      H3323   1.082       .  S
C3314      C3319   1.515       .  S
C3314      C3315   1.409       .  A
C3315      C3316   1.409   1_455  A
C3315      H3320   1.083       .  S
C3316      C3317   1.411       .  A
C3316      H3321   1.083       .  S
C3317      C3318   1.407       .  A
C3318      H3322   1.083       .  S
C3319      C3324   1.409       .  A
C3319      C3328   1.414       .  A
C3324      C3325   1.408       .  A
C3324      H3329   1.083       .  S
C3325      C3326   1.410       .  A
C3325      H3330   1.083       .  S
C3326      C3327   1.408       .  A
C3327      C3328   1.415       .  A
C3327      H3331   1.083       .  S
C3328      H3332   1.083       .  S
C3333      C3334   1.408       .  A
C3333      C3338   1.391   1_655  A
C3333      H3343   1.082       .  S
C3334      C3339   1.478       .  S
C3334      C3335   1.405       .  A
C3335      C3336   1.392       .  A
C3335      H3340   1.083       .  S
C3336      C3337   1.402   1_655  A
C3336      H3341   1.084       .  S
C3337      C3338   1.399       .  A
C3338      H3342   1.084       .  S
C3339      C3344   1.408       .  A
C3339      C3348   1.405       .  A
C3344      C3345   1.391       .  A
C3344      H3349   1.082       .  S
C3345      C3346   1.398       .  A
C3345      H3350   1.084       .  S
C3346      C3347   1.402       .  A
C3347      C3348   1.394       .  A
C3347      H3351   1.084       .  S
C3348      H3352   1.083       .  S
C3353      C3354   1.409       .  A
C3353      C3358   1.388       .  A
C3353      H3363   1.082       .  S
C3354      C3359   1.473       .  S
C3354      C3355   1.403       .  A
C3355      C3356   1.390       .  A
C3355      H3360   1.083       .  S
C3356      C3357   1.403       .  A
C3356      H3361   1.083       .  S
C3357      C3358   1.397       .  A
C3358      H3362   1.084       .  S
C3359      C3364   1.403       .  A
C3359      C3368   1.410       .  A
C3364      C3365   1.388       .  A
C3364      H3369   1.083       .  S
C3365      C3366   1.400       .  A
C3365      H3370   1.084       .  S
C3366      C3367   1.397       .  A
C3367      C3368   1.390       .  A
C3367      H3371   1.084       .  S
C3368      H3372   1.082       .  S
C3373      C3374   1.416       .  A
C3373      C3378   1.421       .  A
C3373      H3383   1.082       .  S
C3374      C3379   1.528       .  S
C3374      C3375   1.412       .  A
C3375      C3376   1.410       .  A
C3375      H3380   1.082       .  S
C3376      C3377   1.409       .  A
C3376      H3381   1.083       .  S
C3377      C3378   1.412       .  A
C3378      H3382   1.083       .  S
C3379      C3384   1.414       .  A
C3379      C3388   1.414       .  A
C3384      C3385   1.420       .  A
C3384      H3389   1.082       .  S
C3385      C3386   1.413       .  A
C3385      H3390   1.083       .  S
C3386      C3387   1.408       .  A
C3387      C3388   1.412       .  A
C3387      H3391   1.083       .  S
C3388      H3392   1.082       .  S
C3393      C3394   1.409       .  A
C3393      C3398   1.401       .  A
C3393      H3403   1.082       .  S
C3394      C3399   1.504       .  S
C3394      C3395   1.412       .  A
C3395      C3396   1.404       .  A
C3395      H3400   1.082       .  S
C3396      C3397   1.403       .  A
C3396      H3401   1.083       .  S
C3397      C3398   1.404       .  A
C3398      H3402   1.083       .  S
C3399      C3404   1.413       .  A
C3399      C3408   1.407       .  A
C3404      C3405   1.405       .  A
C3404      H3409   1.082       .  S
C3405      C3406   1.405       .  A
C3405      H3410   1.083       .  S
C3406      C3407   1.410       .  A
C3407      C3408   1.401       .  A
C3407      H3411   1.083       .  S
C3408      H3412   1.082       .  S
C3413      C3414   1.404       .  A
C3413      C3418   1.401       .  A
C3413      H3423   1.083       .  S
C3414      C3419   1.473       .  S
C3414      C3415   1.400       .  A
C3415      C3416   1.398       .  A
C3415      H3420   1.083       .  S
C3416      C3417   1.407       .  A
C3416      H3421   1.083       .  S
C3417      C3418   1.406       .  A
C3418      H3422   1.083       .  S
C3419      C3424   1.403       .  A
C3419      C3428   1.399       .  A
C3424      C3425   1.404       .  A
C3424      H3429   1.083       .  S
C3425      C3426   1.408       .  A
C3425      H3430   1.083       .  S
C3426      C3427   1.407       .  A
C3427      C3428   1.393       .  A
C3427      H3431   1.083       .  S
C3428      H3432   1.084       .  S
C3433      C3434   1.414       .  A
C3433      C3438   1.408   1_455  A
C3433      H3443   1.081       .  S
C3434      C3439   1.513       .  S
C3434      C3435   1.410   1_455  A
C3435      C3436   1.404       .  A
C3435      H3440   1.082       .  S
C3436      C3437   1.407       .  A
C3436      H3441   1.083       .  S
C3437      C3438   1.405       .  A
C3438      H3442   1.083       .  S
C3439      C3444   1.408       .  A
C3439      C3448   1.415       .  A
C3444      C3445   1.402       .  A
C3444      H3449   1.081       .  S
C3445      C3446   1.409       .  A
C3445      H3450   1.083       .  S
C3446      C3447   1.407       .  A
C3447      C3448   1.410       .  A
C3447      H3451   1.083       .  S
C3448      H3452   1.082       .  S
C3453      C3454   1.405       .  A
C3453      C3458   1.408       .  A
C3453      H3463   1.083       .  S
C3454      C3459   1.484       .  S
C3454      C3455   1.401       .  A
C3455      C3456   1.397       .  A
C3455      H3460   1.084       .  S
C3456      C3457   1.410       .  A
C3456      H3461   1.083       .  S
C3457      C3458   1.410       .  A
C3458      H3462   1.083       .  S
C3459      C3464   1.402       .  A
C3459      C3468   1.404       .  A
C3464      C3465   1.398       .  A
C3464      H3469   1.083       .  S
C3465      C3466   1.409       .  A
C3465      H3470   1.083       .  S
C3466      C3467   1.410       .  A
C3467      C3468   1.407       .  A
C3467      H3471   1.083       .  S
C3468      H3472   1.083       .  S
C3473      C3474   1.425       .  A
C3473      C3478   1.432       .  A
C3473      H3483   1.082       .  S
C3474      C3479   1.542       .  S
C3474      C3475   1.408       .  A
C3475      C3476   1.409       .  A
C3475      H3480   1.082       .  S
C3476      C3477   1.417       .  A
C3476      H3481   1.083       .  S
C3477      C3478   1.414       .  A
C3478      H3482   1.082       .  S
C3479      C3484   1.411       .  A
C3479      C3488   1.424       .  A
C3484      C3485   1.416       .  A
C3484      H3489   1.082       .  S
C3485      C3486   1.415       .  A
C3485      H3490   1.083       .  S
C3486      C3487   1.409       .  A
C3487      C3488   1.424       .  A
C3487      H3491   1.083       .  S
C3488      H3492   1.081       .  S
C3493      C3494   1.409       .  A
C3493      C3498   1.404       .  A
C3493      H3503   1.082       .  S
C3494      C3499   1.504       .  S
C3494      C3495   1.412       .  A
C3495      C3496   1.401       .  A
C3495      H3500   1.082       .  S
C3496      C3497   1.403       .  A
C3496      H3501   1.083       .  S
C3497      C3498   1.407       .  A
C3498      H3502   1.083       .  S
C3499      C3504   1.414       .  A
C3499      C3508   1.405       .  A
C3504      C3505   1.410       .  A
C3504      H3509   1.082       .  S
C3505      C3506   1.407       .  A
C3505      H3510   1.083       .  S
C3506      C3507   1.409       .  A
C3507      C3508   1.395       .  A
C3507      H3511   1.083       .  S
C3508      H3512   1.082       .  S
C3513      C3514   1.408   1_565  A
C3513      C3518   1.404       .  A
C3513      H3523   1.083       .  S
C3514      C3519   1.489       .  S
C3514      C3515   1.405       .  A
C3515      C3516   1.398   1_545  A
C3515      H3520   1.083       .  S
C3516      C3517   1.404       .  A
C3516      H3521   1.084   1_565  S
C3517      C3518   1.404       .  A
C3518      H3522   1.083       .  S
C3519      C3524   1.407       .  A
C3519      C3528   1.405       .  A
C3524      C3525   1.404       .  A
C3524      H3529   1.083       .  S
C3525      C3526   1.406       .  A
C3525      H3530   1.083       .  S
C3526      C3527   1.407       .  A
C3527      C3528   1.400       .  A
C3527      H3531   1.083       .  S
C3528      H3532   1.083   1_545  S
C3533      C3534   1.404       .  A
C3533      C3538   1.393       .  A
C3533      H3543   1.083       .  S
C3534      C3539   1.480       .  S
C3534      C3535   1.409       .  A
C3535      C3536   1.392       .  A
C3535      H3540   1.082       .  S
C3536      C3537   1.400       .  A
C3536      H3541   1.083       .  S
C3537      C3538   1.406       .  A
C3538      H3542   1.084       .  S
C3539      C3544   1.405       .  A
C3539      C3548   1.409       .  A
C3544      C3545   1.393       .  A
C3544      H3549   1.083       .  S
C3545      C3546   1.400       .  A
C3545      H3550   1.084       .  S
C3546      C3547   1.398       .  A
C3547      C3548   1.393       .  A
C3547      H3551   1.084       .  S
C3548      H3552   1.082       .  S
C3553      C3554   1.412       .  A
C3553      C3558   1.404       .  A
C3553      H3563   1.082   1_545  S
C3554      C3559   1.501       .  S
C3554      C3555   1.406       .  A
C3555      C3556   1.400       .  A
C3555      H3560   1.082       .  S
C3556      C3557   1.410       .  A
C3556      H3561   1.083       .  S
C3557      C3558   1.404       .  A
C3558      H3562   1.083   1_545  S
C3559      C3564   1.407       .  A
C3559      C3568   1.412       .  A
C3564      C3565   1.399       .  A
C3564      H3569   1.082       .  S
C3565      C3566   1.407       .  A
C3565      H3570   1.083   1_545  S
C3566      C3567   1.404       .  A
C3567      C3568   1.406       .  A
C3567      H3571   1.083       .  S
C3568      H3572   1.082       .  S
C3573      C3574   1.409       .  A
C3573      C3578   1.411       .  A
C3573      H3583   1.083       .  S
C3574      C3579   1.499       .  S
C3574      C3575   1.407       .  A
C3575      C3576   1.399       .  A
C3575      H3580   1.083       .  S
C3576      C3577   1.405       .  A
C3576      H3581   1.083       .  S
C3577      C3578   1.409       .  A
C3578      H3582   1.083       .  S
C3579      C3584   1.412       .  A
C3579      C3588   1.403       .  A
C3584      C3585   1.414       .  A
C3584      H3589   1.083       .  S
C3585      C3586   1.409       .  A
C3585      H3590   1.083       .  S
C3586      C3587   1.408       .  A
C3587      C3588   1.394       .  A
C3587      H3591   1.083       .  S
C3588      H3592   1.083       .  S
C3593      C3594   1.408       .  A
C3593      C3598   1.391       .  A
C3593      H3603   1.083       .  S
C3594      C3599   1.471       .  S
C3594      C3595   1.402       .  A
C3595      C3596   1.392       .  A
C3595      H3600   1.083       .  S
C3596      C3597   1.402       .  A
C3596      H3601   1.084       .  S
C3597      C3598   1.397       .  A
C3598      H3602   1.084       .  S
C3599      C3604   1.402       .  A
C3599      C3608   1.407       .  A
C3604      C3605   1.391       .  A
C3604      H3609   1.083       .  S
C3605      C3606   1.404       .  A
C3605      H3610   1.084       .  S
C3606      C3607   1.399       .  A
C3607      C3608   1.393       .  A
C3607      H3611   1.084       .  S
C3608      H3612   1.083       .  S
C3613      C3614   1.405       .  A
C3613      C3618   1.404       .  A
C3613      H3623   1.083       .  S
C3614      C3619   1.521       .  S
C3614      C3615   1.418       .  A
C3615      C3616   1.426       .  A
C3615      H3620   1.083       .  S
C3616      C3617   1.413       .  A
C3616      H3621   1.083       .  S
C3617      C3618   1.411       .  A
C3618      H3622   1.084   1_565  S
C3619      C3624   1.409       .  A
C3619      C3628   1.415       .  A
C3624      C3625   1.416       .  A
C3624      H3629   1.083       .  S
C3625      C3626   1.414       .  A
C3625      H3630   1.083       .  S
C3626      C3627   1.407       .  A
C3627      C3628   1.414       .  A
C3627      H3631   1.083       .  S
C3628      H3632   1.083       .  S
C3633      C3634   1.411       .  A
C3633      C3638   1.404       .  A
C3633      H3643   1.082       .  S
C3634      C3639   1.501       .  S
C3634      C3635   1.406       .  A
C3635      C3636   1.403       .  A
C3635      H3640   1.083       .  S
C3636      C3637   1.411       .  A
C3636      H3641   1.083       .  S
C3637      C3638   1.405       .  A
C3638      H3642   1.083       .  S
C3639      C3644   1.408       .  A
C3639      C3648   1.411       .  A
C3644      C3645   1.400       .  A
C3644      H3649   1.083       .  S
C3645      C3646   1.406       .  A
C3645      H3650   1.083       .  S
C3646      C3647   1.406       .  A
C3647      C3648   1.407       .  A
C3647      H3651   1.083       .  S
C3648      H3652   1.082       .  S
C3653      C3654   1.409       .  A
C3653      C3658   1.414       .  A
C3653      H3663   1.083       .  S
C3654      C3659   1.496       .  S
C3654      C3655   1.403       .  A
C3655      C3656   1.395       .  A
C3655      H3660   1.084       .  S
C3656      C3657   1.410       .  A
C3656      H3661   1.083       .  S
C3657      C3658   1.411       .  A
C3658      H3662   1.083       .  S
C3659      C3664   1.408       .  A
C3659      C3668   1.405       .  A
C3664      C3665   1.411       .  A
C3664      H3669   1.083       .  S
C3665      C3666   1.409       .  A
C3665      H3670   1.083       .  S
C3666      C3667   1.408       .  A
C3667      C3668   1.398       .  A
C3667      H3671   1.083       .  S
C3668      H3672   1.083       .  S
C3673      C3674   1.412       .  A
C3673      C3678   1.414       .  A
C3673      H3683   1.083       .  S
C3674      C3679   1.504       .  S
C3674      C3675   1.404       .  A
C3675      C3676   1.402       .  A
C3675      H3680   1.083       .  S
C3676      C3677   1.412       .  A
C3676      H3681   1.083       .  S
C3677      C3678   1.407       .  A
C3678      H3682   1.083       .  S
C3679      C3684   1.412   1_455  A
C3679      C3688   1.406       .  A
C3684      C3685   1.410       .  A
C3684      H3689   1.083       .  S
C3685      C3686   1.406       .  A
C3685      H3690   1.083       .  S
C3686      C3687   1.411       .  A
C3687      C3688   1.405   1_655  A
C3687      H3691   1.083       .  S
C3688      H3692   1.083       .  S
C3693      C3694   1.410       .  A
C3693      C3698   1.400       .  A
C3693      H3703   1.083       .  S
C3694      C3699   1.487       .  S
C3694      C3695   1.405       .  A
C3695      C3696   1.389       .  A
C3695      H3700   1.082       .  S
C3696      C3697   1.404       .  A
C3696      H3701   1.083       .  S
C3697      C3698   1.406       .  A
C3698      H3702   1.083       .  S
C3699      C3704   1.410       .  A
C3699      C3708   1.406       .  A
C3704      C3705   1.397       .  A
C3704      H3709   1.082       .  S
C3705      C3706   1.403       .  A
C3705      H3710   1.083       .  S
C3706      C3707   1.405       .  A
C3707      C3708   1.390       .  A
C3707      H3711   1.083       .  S
C3708      H3712   1.082       .  S
C3713      C3714   1.405       .  A
C3713      C3718   1.398       .  A
C3713      H3723   1.083       .  S
C3714      C3719   1.499       .  S
C3714      C3715   1.411       .  A
C3715      C3716   1.407       .  A
C3715      H3720   1.082       .  S
C3716      C3717   1.407       .  A
C3716      H3721   1.083       .  S
C3717      C3718   1.410       .  A
C3718      H3722   1.083       .  S
C3719      C3724   1.409       .  A
C3719      C3728   1.409       .  A
C3724      C3725   1.402       .  A
C3724      H3729   1.083       .  S
C3725      C3726   1.404       .  A
C3725      H3730   1.083       .  S
C3726      C3727   1.405       .  A
C3727      C3728   1.404       .  A
C3727      H3731   1.083       .  S
C3728      H3732   1.082       .  S
C3733      C3734   1.403       .  A
C3733      C3738   1.401       .  A
C3733      H3743   1.083       .  S
C3734      C3739   1.487       .  S
C3734      C3735   1.406       .  A
C3735      C3736   1.407       .  A
C3735      H3740   1.083       .  S
C3736      C3737   1.408       .  A
C3736      H3741   1.083       .  S
C3737      C3738   1.408       .  A
C3738      H3742   1.083       .  S
C3739      C3744   1.402       .  A
C3739      C3748   1.407       .  A
C3744      C3745   1.400       .  A
C3744      H3749   1.083       .  S
C3745      C3746   1.410       .  A
C3745      H3750   1.083       .  S
C3746      C3747   1.407       .  A
C3747      C3748   1.408       .  A
C3747      H3751   1.083       .  S
C3748      H3752   1.083       .  S
C3753      C3754   1.414       .  A
C3753      C3758   1.412       .  A
C3753      H3763   1.082       .  S
C3754      C3759   1.513       .  S
C3754      C3755   1.409       .  A
C3755      C3756   1.408       .  A
C3755      H3760   1.083       .  S
C3756      C3757   1.410       .  A
C3756      H3761   1.083       .  S
C3757      C3758   1.406       .  A
C3758      H3762   1.083       .  S
C3759      C3764   1.415       .  A
C3759      C3768   1.408       .  A
C3764      C3765   1.415       .  A
C3764      H3769   1.083       .  S
C3765      C3766   1.408       .  A
C3765      H3770   1.083       .  S
C3766      C3767   1.409       .  A
C3767      C3768   1.405       .  A
C3767      H3771   1.083       .  S
C3768      H3772   1.082       .  S
C3773      C3774   1.408       .  A
C3773      C3778   1.396       .  A
C3773      H3783   1.083       .  S
C3774      C3779   1.480       .  S
C3774      C3775   1.404       .  A
C3775      C3776   1.387       .  A
C3775      H3780   1.082       .  S
C3776      C3777   1.403       .  A
C3776      H3781   1.083       .  S
C3777      C3778   1.403       .  A
C3778      H3782   1.083       .  S
C3779      C3784   1.405       .  A
C3779      C3788   1.407       .  A
C3784      C3785   1.388       .  A
C3784      H3789   1.082       .  S
C3785      C3786   1.403       .  A
C3785      H3790   1.083       .  S
C3786      C3787   1.403       .  A
C3787      C3788   1.395       .  A
C3787      H3791   1.083       .  S
C3788      H3792   1.083       .  S
C3793      C3794   1.405       .  A
C3793      C3798   1.408       .  A
C3793      H3803   1.083       .  S
C3794      C3799   1.524       .  S
C3794      C3795   1.421       .  A
C3795      C3796   1.422       .  A
C3795      H3800   1.082       .  S
C3796      C3797   1.409       .  A
C3796      H3801   1.083       .  S
C3797      C3798   1.414       .  A
C3798      H3802   1.083       .  S
C3799      C3804   1.421       .  A
C3799      C3808   1.405       .  A
C3804      C3805   1.423       .  A
C3804      H3809   1.082       .  S
C3805      C3806   1.408       .  A
C3805      H3810   1.083       .  S
C3806      C3807   1.417       .  A
C3807      C3808   1.407       .  A
C3807      H3811   1.083       .  S
C3808      H3812   1.083       .  S
C3813      C3814   1.407       .  A
C3813      C3818   1.402       .  A
C3813      H3823   1.082       .  S
C3814      C3819   1.505       .  S
C3814      C3815   1.413       .  A
C3815      C3816   1.406       .  A
C3815      H3820   1.082       .  S
C3816      C3817   1.405       .  A
C3816      H3821   1.083       .  S
C3817      C3818   1.410       .  A
C3818      H3822   1.083       .  S
C3819      C3824   1.413       .  A
C3819      C3828   1.408       .  A
C3824      C3825   1.408       .  A
C3824      H3829   1.082       .  S
C3825      C3826   1.406       .  A
C3825      H3830   1.083       .  S
C3826      C3827   1.407       .  A
C3827      C3828   1.401       .  A
C3827      H3831   1.083       .  S
C3828      H3832   1.082       .  S
C3833      C3834   1.404       .  A
C3833      C3838   1.400   1_545  A
C3833      H3843   1.083       .  S
C3834      C3839   1.483       .  S
C3834      C3835   1.405   1_545  A
C3835      C3836   1.401       .  A
C3835      H3840   1.083       .  S
C3836      C3837   1.406       .  A
C3836      H3841   1.083       .  S
C3837      C3838   1.407       .  A
C3838      H3842   1.083   1_565  S
C3839      C3844   1.405       .  A
C3839      C3848   1.405       .  A
C3844      C3845   1.403       .  A
C3844      H3849   1.083       .  S
C3845      C3846   1.408       .  A
C3845      H3850   1.083       .  S
C3846      C3847   1.403       .  A
C3847      C3848   1.399       .  A
C3847      H3851   1.083       .  S
C3848      H3852   1.083   1_545  S
C3853      C3854   1.407       .  A
C3853      C3858   1.407       .  A
C3853      H3863   1.083       .  S
C3854      C3859   1.516       .  S
C3854      C3855   1.415       .  A
C3855      C3856   1.416       .  A
C3855      H3860   1.083       .  S
C3856      C3857   1.408       .  A
C3856      H3861   1.083       .  S
C3857      C3858   1.412       .  A
C3858      H3862   1.083       .  S
C3859      C3864   1.415       .  A
C3859      C3868   1.408       .  A
C3864      C3865   1.416       .  A
C3864      H3869   1.083       .  S
C3865      C3866   1.408       .  A
C3865      H3870   1.083       .  S
C3866      C3867   1.411       .  A
C3867      C3868   1.407       .  A
C3867      H3871   1.083       .  S
C3868      H3872   1.083       .  S
C3873      C3874   1.406       .  A
C3873      C3878   1.387       .  A
C3873      H3883   1.083       .  S
C3874      C3879   1.470       .  S
C3874      C3875   1.404       .  A
C3875      C3876   1.394       .  A
C3875      H3880   1.083       .  S
C3876      C3877   1.401       .  A
C3876      H3881   1.084       .  S
C3877      C3878   1.396       .  A
C3878      H3882   1.084       .  S
C3879      C3884   1.403       .  A
C3879      C3888   1.407       .  A
C3884      C3885   1.390       .  A
C3884      H3889   1.083       .  S
C3885      C3886   1.403       .  A
C3885      H3890   1.084       .  S
C3886      C3887   1.399       .  A
C3887      C3888   1.393       .  A
C3887      H3891   1.083       .  S
C3888      H3892   1.083       .  S
C3893      C3894   1.404       .  A
C3893      C3898   1.389       .  A
C3893      H3903   1.083       .  S
C3894      C3899   1.480       .  S
C3894      C3895   1.407       .  A
C3895      C3896   1.398       .  A
C3895      H3900   1.083       .  S
C3896      C3897   1.406       .  A
C3896      H3901   1.083       .  S
C3897      C3898   1.405       .  A
C3898      H3902   1.083       .  S
C3899      C3904   1.406       .  A
C3899      C3908   1.404       .  A
C3904      C3905   1.397       .  A
C3904      H3909   1.083       .  S
C3905      C3906   1.405       .  A
C3905      H3910   1.083       .  S
C3906      C3907   1.405       .  A
C3907      C3908   1.391       .  A
C3907      H3911   1.083       .  S
C3908      H3912   1.083       .  S
C3913      C3914   1.406       .  A
C3913      C3918   1.398       .  A
C3913      H3923   1.082       .  S
C3914      C3919   1.498   1_455  S
C3914      C3915   1.411       .  A
C3915      C3916   1.405       .  A
C3915      H3920   1.082       .  S
C3916      C3917   1.405       .  A
C3916      H3921   1.083       .  S
C3917      C3918   1.405       .  A
C3918      H3922   1.083   1_545  S
C3919      C3924   1.412       .  A
C3919      C3928   1.404       .  A
C3924      C3925   1.405       .  A
C3924      H3929   1.083   1_645  S
C3925      C3926   1.405       .  A
C3925      H3930   1.083   1_545  S
C3926      C3927   1.411       .  A
C3927      C3928   1.400       .  A
C3927      H3931   1.083       .  S
C3928      H3932   1.082       .  S
C3933      C3934   1.404       .  A
C3933      C3938   1.400       .  A
C3933      H3943   1.083       .  S
C3934      C3939   1.484       .  S
C3934      C3935   1.406   1_545  A
C3935      C3936   1.400       .  A
C3935      H3940   1.083       .  S
C3936      C3937   1.405       .  A
C3936      H3941   1.083       .  S
C3937      C3938   1.408   1_565  A
C3938      H3942   1.083       .  S
C3939      C3944   1.405       .  A
C3939      C3948   1.406       .  A
C3944      C3945   1.397   1_545  A
C3944      H3949   1.083   1_545  S
C3945      C3946   1.402   1_565  A
C3945      H3950   1.083       .  S
C3946      C3947   1.405       .  A
C3947      C3948   1.403       .  A
C3947      H3951   1.083       .  S
C3948      H3952   1.083       .  S
C3953      C3954   1.401       .  A
C3953      C3958   1.391       .  A
C3953      H3963   1.083       .  S
C3954      C3959   1.472       .  S
C3954      C3955   1.406       .  A
C3955      C3956   1.392       .  A
C3955      H3960   1.083       .  S
C3956      C3957   1.403       .  A
C3956      H3961   1.083       .  S
C3957      C3958   1.407       .  A
C3958      H3962   1.083       .  S
C3959      C3964   1.404       .  A
C3959      C3968   1.402       .  A
C3964      C3965   1.392       .  A
C3964      H3969   1.083       .  S
C3965      C3966   1.405       .  A
C3965      H3970   1.083       .  S
C3966      C3967   1.406       .  A
C3967      C3968   1.392       .  A
C3967      H3971   1.083       .  S
C3968      H3972   1.083       .  S
C3973      C3974   1.415       .  A
C3973      C3978   1.417   1_455  A
C3973      H3983   1.083       .  S
C3974      C3979   1.511       .  S
C3974      C3975   1.406   1_455  A
C3975      C3976   1.404       .  A
C3975      H3980   1.083       .  S
C3976      C3977   1.411       .  A
C3976      H3981   1.083       .  S
C3977      C3978   1.409       .  A
C3978      H3982   1.083   1_655  S
C3979      C3984   1.407       .  A
C3979      C3988   1.414       .  A
C3984      C3985   1.407       .  A
C3984      H3989   1.083       .  S
C3985      C3986   1.410       .  A
C3985      H3990   1.083       .  S
C3986      C3987   1.407       .  A
C3987      C3988   1.414       .  A
C3987      H3991   1.083       .  S
C3988      H3992   1.083   1_455  S
C3993      C3994   1.407       .  A
C3993      C3998   1.395   1_655  A
C3993      H4003   1.083       .  S
C3994      C3999   1.477       .  S
C3994      C3995   1.402       .  A
C3995      C3996   1.392       .  A
C3995      H4000   1.083       .  S
C3996      C3997   1.406   1_655  A
C3996      H4001   1.083       .  S
C3997      C3998   1.402       .  A
C3998      H4002   1.083       .  S
C3999      C4004   1.404       .  A
C3999      C4008   1.406       .  A
C4004      C4005   1.386       .  A
C4004      H4009   1.083       .  S
C4005      C4006   1.403       .  A
C4005      H4010   1.083       .  S
C4006      C4007   1.406       .  A
C4007      C4008   1.397       .  A
C4007      H4011   1.083       .  S
C4008      H4012   1.083       .  S
C4013      C4014   1.414       .  A
C4013      C4018   1.412       .  A
C4013      H4023   1.082       .  S
C4014      C4019   1.532       .  S
C4014      C4015   1.416       .  A
C4015      C4016   1.421       .  A
C4015      H4020   1.082       .  S
C4016      C4017   1.411       .  A
C4016      H4021   1.083       .  S
C4017      C4018   1.409       .  A
C4018      H4022   1.083       .  S
C4019      C4024   1.412       .  A
C4019      C4028   1.417       .  A
C4024      C4025   1.412       .  A
C4024      H4029   1.082       .  S
C4025      C4026   1.411       .  A
C4025      H4030   1.083       .  S
C4026      C4027   1.412       .  A
C4027      C4028   1.423       .  A
C4027      H4031   1.083       .  S
C4028      H4032   1.082       .  S
