geometry optimzed in LAMMPS
_audit_creation_date              2020-12-01 
_audit_creation_method            'lammps2cif' 
_symmetry_space_group_name_H-M    'P1' 
_symmetry_Int_Tables_number       1 
_symmetry_cell_setting            triclinic 
loop_ 
_symmetry_equiv_pos_as_xyz 
  x,y,z 
_cell_length_a                    35.2356515 
_cell_length_b                    35.25765745856147 
_cell_length_c                    45.81981519853089 
_cell_angle_alpha                 90.0368367495239 
_cell_angle_beta                  89.81485408440295 
_cell_angle_gamma                 120.042286484542 
loop_ 
_atom_site_label 
_atom_site_type_symbol 
_atom_site_fract_x 
_atom_site_fract_y 
_atom_site_fract_z 
_atom_site_charge 
Fe1        Fe  0.35206776  0.33700760  0.45771172     1.65800
Fe2        Fe  0.29645649  0.38659465  0.48171141     1.73200
Fe3        Fe  0.24369729  0.29405705  0.44217987     1.54400
O4          O  0.27546429  0.31000892  0.40258035    -0.83100
O5          O  0.23245243  0.34566344  0.49607757    -0.81500
O6          O  0.34591017  0.33151073  0.41222702    -0.85700
O7          O  0.32330841  0.27040829  0.46268093    -0.80500
O8          O  0.22166120  0.33743256  0.43334951    -0.82300
O9          O  0.31841998  0.36842258  0.01867065    -0.85000
C10         C  0.28799903  0.23811348  0.45379910     0.95700
C11         C  0.31468849  0.32292860  0.39438544     1.03200
O12         O  0.29780252  0.33884278  0.46088336    -1.14000
O13         O  0.35961663  0.43600075  0.47209815    -0.76400
O14         O  0.39254452  0.40311775  0.45212775    -0.79900
O15         O  0.25571936  0.24212421  0.44594592    -0.80600
C16         C  0.39286831  0.43740591  0.46044938     0.94600
O17         O  0.35751996  0.33753169  0.00328144    -0.78600
O18         O  0.27602430  0.40396012  0.44407503    -0.83800
C19         C  0.20500167  0.30469982  0.49710127     0.97300
C20         C  0.24287302  0.37840614  0.42890258     1.03200
O21         O  0.20930702  0.27736293  0.48127751    -0.79400
C22         C  0.34210561  0.35101546  0.02353358     1.01500
Fe23       Fe  0.00749195  0.33570331  0.29485495     1.65800
Fe24       Fe  0.11325802  0.38391049  0.27160231     1.73200
Fe25       Fe  0.06922558  0.28908733  0.31132510     1.54400
O26         O  0.04420866  0.29831091  0.34946012    -0.83100
O27         O  0.13486328  0.34314079  0.25580182    -0.81500
O28         O  0.01053317  0.33673242  0.34032084    -0.85700
O29         O  0.96846519  0.26889637  0.29561242    -0.80500
O30         O  0.13014552  0.33331521  0.32749232    -0.82300
O31         O  0.07472719  0.37037863  0.23437074    -0.85000
C32         C  0.97150233  0.23484508  0.29806200     0.95700
C33         C  0.02540602  0.31921157  0.35793503     1.03200
O34         O  0.06306414  0.33598322  0.29228866    -1.14000
O35         O  0.10275669  0.43473962  0.28284127    -0.76400
O36         O  0.03306274  0.40222031  0.29522638    -0.79900
O37         O  0.00824534  0.23675451  0.30016995    -0.80600
C38         C  0.06918555  0.43648416  0.29030724     0.94600
O39         O  0.00429486  0.33524396  0.24949059    -0.78600
O40         O  0.15234828  0.39961964  0.30860810    -0.83800
C41         C  0.12460692  0.30318308  0.25716489     0.97300
C42         C  0.15463299  0.37464301  0.32766764     1.03200
O43         O  0.09592457  0.27650641  0.27489627    -0.79400
C44         C  0.03343069  0.35086636  0.22929103     1.01500
Fe45       Fe  0.35424388  0.99103689  0.37651106     1.65800
Fe46       Fe  0.40393636  0.09704001  0.39892783     1.73200
Fe47       Fe  0.31531244  0.05732414  0.35575610     1.54400
O48         O  0.33576684  0.04216490  0.31759187    -0.83100
O49         O  0.36142587  0.11934369  0.41138865    -0.81500
O50         O  0.34453202  0.98599774  0.33157726    -0.85700
O51         O  0.28789490  0.95653645  0.38441207    -0.80500
O52         O  0.35833973  0.12279877  0.34779864    -0.82300
O53         O  0.38681225  0.05998273  0.43683733    -0.85000
C54         C  0.25804339  0.95770720  0.36992106     0.95700
C55         C  0.34165832  0.01009903  0.31194660     1.03200
O56         O  0.35770776  0.04798597  0.37741154    -1.14000
O57         O  0.45261520  0.08180098  0.39048450    -0.76400
O58         O  0.42011982  0.01675024  0.36886874    -0.79900
O59         O  0.26417003  0.99281244  0.35803619    -0.80600
C60         C  0.45410598  0.05027733  0.37830336     0.94600
O61         O  0.36326551  0.99158750  0.42111562    -0.78600
O62         O  0.42413644  0.13605460  0.36144686    -0.83800
C63         C  0.32038279  0.10581722  0.41018085     0.97300
C64         C  0.39968165  0.14438770  0.34563405     1.03200
O65         O  0.29473144  0.07452973  0.39341776    -0.79400
C66         C  0.37316722  0.01947769  0.44155124     1.01500
Fe67       Fe  0.35702807  0.34032157  0.20787194     1.65800
Fe68       Fe  0.40366260  0.27926393  0.18864035     1.73200
Fe69       Fe  0.30919335  0.23468251  0.22946839     1.54400
O70         O  0.31313733  0.27429568  0.26420761    -0.83100
O71         O  0.36176686  0.21718384  0.17273604    -0.81500
O72         O  0.36030748  0.34441895  0.25293847    -0.85700
O73         O  0.29019931  0.31277333  0.21006031    -0.80500
O74         O  0.35402434  0.22428494  0.25102404    -0.82300
O75         O  0.39242992  0.30460708  0.15039844    -0.85000
C76         C  0.25636423  0.27517224  0.21029830     0.95700
C77         C  0.33663099  0.31449302  0.27113976     1.03200
O78         O  0.35673356  0.28458013  0.20848813    -1.14000
O79         O  0.45490819  0.34029905  0.20064652    -0.76400
O80         O  0.42341286  0.38050842  0.20553093    -0.79900
O81         O  0.25876246  0.24053756  0.21123217    -0.80600
C82         C  0.45723458  0.37705562  0.20365177     0.94600
O83         O  0.35398425  0.33733499  0.16321842    -0.78600
O84         O  0.41717786  0.25382578  0.22599211    -0.83800
C85         C  0.32346178  0.18584739  0.17807265     0.97300
C86         C  0.39381237  0.23419690  0.24832205     1.03200
O87         O  0.29940777  0.18843789  0.19775987    -0.79400
C88         C  0.37104353  0.32409293  0.14405966     1.01500
Fe89       Fe  0.65956368  0.63798076  0.45832132     1.65800
Fe90       Fe  0.61170646  0.69711422  0.43882418     1.73200
Fe91       Fe  0.70610190  0.74361666  0.47937987     1.54400
O92         O  0.69840775  0.70290907  0.01437726    -0.83100
O93         O  0.65331811  0.75816391  0.42153422    -0.81500
O94         O  0.65129389  0.63275666  0.00352286    -0.85700
O95         O  0.72678618  0.66725225  0.46107953    -0.80500
O96         O  0.65523993  0.75047994  0.00105475    -0.82300
O97         O  0.62187894  0.66939617  0.40095952    -0.85000
C98         C  0.76049060  0.70508923  0.46046320     0.95700
C99         C  0.67496772  0.66283002  0.02149707     1.03200
O100        O  0.65922476  0.69327371  0.45843371    -1.14000
O101        O  0.56133869  0.63690482  0.45283344    -0.76400
O102        O  0.59311311  0.59673893  0.45545914    -0.79900
O103        O  0.75751362  0.73948518  0.46050402    -0.80600
C104        C  0.55913756  0.60011611  0.45489690     0.94600
O105        O  0.66344191  0.64006714  0.41352960    -0.78600
O106        O  0.59864629  0.72454625  0.47561578    -0.83800
C107        C  0.69041299  0.79075805  0.42770486     0.97300
C108        C  0.62098100  0.74292942  0.49848603     1.03200
O109        O  0.71385793  0.78976503  0.44833784    -0.79400
C110        C  0.64413121  0.65075114  0.39445141     1.01500
Fe111      Fe  0.00641967  0.33941792  0.04398516     1.65800
Fe112      Fe  0.89915939  0.27881118  0.06414420     1.73200
Fe113      Fe  0.94864593  0.23314784  0.02393895     1.54400
O114        O  0.98395172  0.27145482  0.48972750    -0.83100
O115        O  0.87971468  0.21732788  0.08107438    -0.81500
O116        O  0.00460577  0.34156117  0.49918783    -0.85700
O117        O  0.04595163  0.31197079  0.04199303    -0.80500
O118        O  0.89319490  0.22061994  0.50393901    -0.82300
O119        O  0.93650893  0.30596545  0.10203358    -0.85000
C120        C  0.04247030  0.27448087  0.04240594     0.95700
C121        C  0.99876955  0.31100455  0.48172433     1.03200
O122        O  0.95113688  0.28353458  0.04430604    -1.14000
O123        O  0.90835774  0.33937875  0.05091355    -0.76400
O124        O  0.98008521  0.37941750  0.04575648    -0.79900
O125        O  0.00540014  0.23965967  0.04216835    -0.80600
C126        C  0.94285980  0.37609430  0.04751149     0.94600
O127        O  0.00762490  0.33826478  0.08890007    -0.78600
O128        O  0.85942076  0.25161600  0.02726294    -0.83800
C129        C  0.88635322  0.18574869  0.07591678     0.97300
C130        C  0.86292220  0.23167932  0.00505656     1.03200
O131        O  0.91237223  0.18769885  0.05599729    -0.79400
C132        C  0.97750950  0.32578165  0.10824387     1.01500
Fe133      Fe  0.65706199  0.98793891  0.37675881     1.65800
Fe134      Fe  0.71445216  0.09445052  0.35480530     1.73200
Fe135      Fe  0.76363700  0.05349677  0.39683072     1.54400
O136        O  0.72839397  0.03569711  0.43491089    -0.83100
O137        O  0.77914576  0.11715637  0.34189608    -0.81500
O138        O  0.66038978  0.98399088  0.42187460    -0.85700
O139        O  0.68740526  0.95177964  0.37080654    -0.80500
O140        O  0.78473341  0.11789234  0.40708943    -0.82300
O141        O  0.69390040  0.05745691  0.31667396    -0.85000
C142        C  0.72115666  0.95439329  0.38232964     0.95700
C143        C  0.68933698  0.00627478  0.44101604     1.03200
O144        O  0.71136453  0.04473465  0.37584852    -1.14000
O145        O  0.65104881  0.08028407  0.36366914    -0.76400
O146        O  0.61645880  0.01351797  0.38264903    -0.79900
O147        O  0.75181931  0.99008941  0.39233905    -0.80600
C148        C  0.61717971  0.04817438  0.37460419     0.94600
O149        O  0.65081364  0.98820212  0.33190049    -0.78600
O150        O  0.73367142  0.13290934  0.39257136    -0.83800
C151        C  0.80711276  0.10427334  0.34287890     0.97300
C152        C  0.76539677  0.13985701  0.40909985     1.03200
O153        O  0.80200267  0.07314067  0.35950456    -0.79400
C154        C  0.66836809  0.01665770  0.31165543     1.01500
Fe155      Fe  0.65697912  0.98547162  0.12675787     1.65800
Fe156      Fe  0.60795536  0.87875250  0.14836393     1.73200
Fe157      Fe  0.69774840  0.92059779  0.10500180     1.54400
O158        O  0.67961269  0.93857793  0.06739171    -0.83100
O159        O  0.65064885  0.85681272  0.16084952    -0.81500
O160        O  0.66544750  0.99118284  0.08170536    -0.85700
O161        O  0.72338596  0.02128044  0.13335167    -0.80500
O162        O  0.65424799  0.85605559  0.09445092    -0.82300
O163        O  0.62397523  0.91522097  0.18658257    -0.85000
C164        C  0.75444415  0.01986927  0.12051622     0.95700
C165        C  0.67109831  0.96889905  0.06199691     1.03200
O166        O  0.65436901  0.92868246  0.12696739    -1.14000
O167        O  0.55841874  0.89271213  0.13958150    -0.76400
O168        O  0.59089792  0.95942109  0.12035915    -0.79900
O169        O  0.74944795  0.98467802  0.10941306    -0.80600
C170        C  0.55680150  0.92474516  0.12840009     0.94600
O171        O  0.64930587  0.98426884  0.17157913    -0.78600
O172        O  0.58851852  0.83992685  0.11100150    -0.83800
C173        C  0.69150041  0.86973520  0.15893593     0.97300
C174        C  0.61280264  0.83329189  0.09371443     1.03200
O175        O  0.71698577  0.90059398  0.14182051    -0.79400
C176        C  0.63856402  0.95579254  0.19174404     1.01500
Fe177      Fe  0.00720862  0.63919250  0.29277593     1.65800
Fe178      Fe  0.11407209  0.69873550  0.31316638     1.73200
Fe179      Fe  0.06668972  0.74459183  0.27092843     1.54400
O180        O  0.03094337  0.70532842  0.23653137    -0.83100
O181        O  0.13355837  0.76054096  0.32934710    -0.81500
O182        O  0.00796904  0.63535865  0.24774994    -0.85700
O183        O  0.96912227  0.66821026  0.29012902    -0.80500
O184        O  0.12137512  0.75252633  0.24981298    -0.82300
O185        O  0.07636341  0.67262040  0.35085679    -0.85000
C186        C  0.97299517  0.70589199  0.28926673     0.95700
C187        C  0.01433416  0.66523860  0.22960369     1.03200
O188        O  0.06284867  0.69449200  0.29264930    -1.14000
O189        O  0.10446682  0.63782599  0.30075337    -0.76400
O190        O  0.03287779  0.59853863  0.29496373    -0.79900
O191        O  0.01024936  0.74048531  0.28821318    -0.80600
C192        C  0.06990302  0.60138431  0.29691346     0.94600
O193        O  0.00554834  0.64118654  0.33765222    -0.78600
O194        O  0.15440737  0.72434020  0.27658492    -0.83800
C195        C  0.12828962  0.79263486  0.32304238     0.97300
C196        C  0.15100459  0.74261740  0.25356582     1.03200
O197        O  0.10371392  0.79097835  0.30227993    -0.79400
C198        C  0.03540574  0.65326713  0.35699763     1.01500
Fe199      Fe  0.35303327  0.98509053  0.12583561     1.65800
Fe200      Fe  0.29478845  0.87892768  0.10336394     1.73200
Fe201      Fe  0.24763790  0.91990121  0.14793070     1.54400
O202        O  0.28430746  0.93653339  0.18542165    -0.83100
O203        O  0.22971279  0.85700414  0.09187256    -0.81500
O204        O  0.35086347  0.98983332  0.17108212    -0.85700
O205        O  0.32272494  0.02150624  0.12031726    -0.80500
O206        O  0.22626942  0.85493196  0.15698192    -0.82300
O207        O  0.31406878  0.91561927  0.06549095    -0.85000
C208        C  0.29056004  0.01981713  0.13381893     0.95700
C209        C  0.32312181  0.96709061  0.19085804     1.03200
O210        O  0.29875474  0.92847025  0.12539835    -1.14000
O211        O  0.35864264  0.89286046  0.11092559    -0.76400
O212        O  0.39286929  0.95867556  0.13129500    -0.79900
O213        O  0.26056752  0.98432607  0.14485034    -0.80600
C214        C  0.39237504  0.92446542  0.12237721     0.94600
O215        O  0.35860223  0.98432274  0.08088486    -0.78600
O216        O  0.27669242  0.84006569  0.14042309    -0.83800
C217        C  0.20195139  0.87008019  0.09406109     0.97300
C218        C  0.24541633  0.83265447  0.15752048     1.03200
O219        O  0.20781309  0.90101367  0.11126001    -0.79400
C220        C  0.34039412  0.95615573  0.06060203     1.01500
Fe221      Fe  0.66268342  0.64096237  0.20784858     1.65800
Fe222      Fe  0.71886638  0.59157854  0.23065675     1.73200
Fe223      Fe  0.77052563  0.68348378  0.19041287     1.54400
O224        O  0.73788638  0.66609544  0.15167375    -0.83100
O225        O  0.78321173  0.63369397  0.24440676    -0.81500
O226        O  0.66831741  0.64725880  0.16228220    -0.85700
O227        O  0.69216526  0.70750317  0.21356551    -0.80500
O228        O  0.79323140  0.64047536  0.18169580    -0.82300
O229        O  0.69664946  0.60630557  0.26846034    -0.85000
C230        C  0.72641602  0.73938122  0.20294449     0.95700
C231        C  0.69888472  0.65452821  0.14404018     1.03200
O232        O  0.71694392  0.63906133  0.21009002    -1.14000
O233        O  0.65570210  0.54211199  0.22111736    -0.76400
O234        O  0.62227390  0.57495198  0.20187831    -0.79900
O235        O  0.75795183  0.73507276  0.19362806    -0.80600
C236        C  0.62232660  0.54065449  0.20972820     0.94600
O237        O  0.65507084  0.63420850  0.25308544    -0.78600
O238        O  0.73883256  0.57422259  0.19267610    -0.83800
C239        C  0.81051051  0.67485020  0.24473720     0.97300
C240        C  0.77178102  0.59956034  0.17718583     1.03200
O241        O  0.80553915  0.70158554  0.22882185    -0.79400
C242        C  0.67129134  0.62178810  0.27340231     1.01500
Fe243      Fe  0.00377816  0.64128914  0.04344706     1.65800
Fe244      Fe  0.89879116  0.59198549  0.01955543     1.73200
Fe245      Fe  0.93730191  0.68226650  0.06068373     1.54400
O246        O  0.95200973  0.66438111  0.09941689    -0.83100
O247        O  0.87509275  0.63321882  0.00686391    -0.81500
O248        O  0.00484636  0.64859879  0.08890221    -0.85700
O249        O  0.04026573  0.70810895  0.03713150    -0.80500
O250        O  0.87166090  0.63795517  0.06843554    -0.82300
O251        O  0.93864960  0.60952737  0.48270049    -0.85000
C252        C  0.03746628  0.73930061  0.04859624     0.95700
C253        C  0.98074518  0.65465378  0.10711363     1.03200
O254        O  0.94754823  0.63901156  0.04075642    -1.14000
O255        O  0.91372425  0.54316385  0.02753653    -0.76400
O256        O  0.97745812  0.57503246  0.05031951    -0.79900
O257        O  0.00138688  0.73411802  0.05819589    -0.80600
C258        C  0.94420488  0.54111755  0.04059722     0.94600
O259        O  0.00790337  0.63564915  0.49820890    -0.78600
O260        O  0.86164501  0.57244672  0.05769444    -0.83800
C261        C  0.88906129  0.67434432  0.00643532     0.97300
C262        C  0.85388329  0.59729587  0.07354564     1.03200
O263        O  0.92090082  0.70102267  0.02227566    -0.79400
C264        C  0.97944069  0.62443385  0.47785943     1.01500
C265        C  0.82544852  0.58378815  0.15256372    -0.14800
C266        C  0.78517724  0.58282485  0.15212530     0.07300
C267        C  0.76368363  0.57734533  0.12537099    -0.14800
C268        C  0.78396493  0.57675072  0.09916789    -0.14800
C269        C  0.82557101  0.58067647  0.09948520     0.07300
C270        C  0.84522696  0.58212530  0.12640485    -0.14800
H271        H  0.84313832  0.58932799  0.17285923     0.11300
H272        H  0.73327153  0.57799882  0.12452508     0.11300
H273        H  0.76898553  0.57712050  0.07864459     0.11300
H274        H  0.87794820  0.58653621  0.12705615     0.11300
C275        C  0.12113332  0.84230384  0.08729836    -0.14800
C276        C  0.16046251  0.84569974  0.07719054     0.07300
C277        C  0.15863742  0.81993862  0.05318421    -0.14800
C278        C  0.11837380  0.78836994  0.04159102    -0.14800
C279        C  0.07876436  0.78149656  0.05380566     0.07300
C280        C  0.08064918  0.81050308  0.07570000    -0.14800
H281        H  0.12135696  0.86168099  0.10571323     0.11300
H282        H  0.18834877  0.82220607  0.04451928     0.11300
H283        H  0.11828084  0.76706309  0.02451978     0.11300
H284        H  0.05081874  0.80618753  0.08565699     0.11300
C285        C  0.22561105  0.78590777  0.23203264    -0.14800
C286        C  0.18166650  0.75309129  0.22913773     0.07300
C287        C  0.16393133  0.73923444  0.20113174    -0.14800
C288        C  0.18793011  0.76170776  0.17647624    -0.14800
C289        C  0.23000188  0.79802411  0.17956383     0.07300
C290        C  0.24974199  0.80841704  0.20723455    -0.14800
H291        H  0.23949110  0.79754672  0.25346407     0.11300
H292        H  0.12984890  0.71420757  0.19855519     0.11300
H293        H  0.17185206  0.75391031  0.15541887     0.11300
H294        H  0.28178799  0.83713683  0.21003709     0.11300
C295        C  0.97681319  0.62160167  0.39528929    -0.14800
C296        C  0.02161191  0.64440784  0.38801362     0.07300
C297        C  0.05266906  0.65890988  0.41062681    -0.14800
C298        C  0.03914126  0.65161668  0.43985439    -0.14800
C299        C  0.99426954  0.62970195  0.44705486     0.07300
C300        C  0.96334553  0.61434897  0.42439003    -0.14800
H301        H  0.95194741  0.60964759  0.37848419     0.11300
H302        H  0.08745023  0.67644242  0.40578381     0.11300
H303        H  0.06382673  0.66388456  0.45677901     0.11300
H304        H  0.92852188  0.59711099  0.42908677     0.11300
C305        C  0.02267402  0.64021885  0.18024980    -0.14800
C306        C  0.00080452  0.65416619  0.19925054     0.07300
C307        C  0.97050639  0.66493439  0.18818989    -0.14800
C308        C  0.96297554  0.66325605  0.15838206    -0.14800
C309        C  0.98632595  0.65158860  0.13883794     0.07300
C310        C  0.01558684  0.63909025  0.15007340    -0.14800
H311        H  0.04682032  0.63260194  0.18856877     0.11300
H312        H  0.95380562  0.67625685  0.20262158     0.11300
H313        H  0.93996373  0.67282132  0.15065748     0.11300
H314        H  0.03386509  0.62977451  0.13557754     0.11300
C315        C  0.89232733  0.67104588  0.29551329    -0.14800
C316        C  0.93184851  0.70739984  0.28618741     0.07300
C317        C  0.92992786  0.73815459  0.26758764    -0.14800
C318        C  0.88957731  0.72981405  0.25592038    -0.14800
C319        C  0.85072720  0.69057001  0.26265798     0.07300
C320        C  0.85234980  0.66266897  0.28385736    -0.14800
H321        H  0.89265009  0.64688266  0.30995613     0.11300
H322        H  0.95982778  0.76629613  0.25980034     0.11300
H323        H  0.88938874  0.75212079  0.23975418     0.11300
H324        H  0.82300219  0.63255646  0.28994411     0.11300
C325        C  0.47374933  0.96250870  0.12613456    -0.14800
C326        C  0.43365973  0.92298829  0.12433340     0.07300
C327        C  0.43417274  0.88333972  0.12323415    -0.14800
C328        C  0.47409484  0.88342962  0.12444494    -0.14800
C329        C  0.51410552  0.92321692  0.12597365     0.07300
C330        C  0.51334150  0.96264114  0.12664765    -0.14800
H331        H  0.47465450  0.99366593  0.12670488     0.11300
H332        H  0.40379555  0.85238182  0.12172405     0.11300
H333        H  0.47373239  0.85254017  0.12397344     0.11300
H334        H  0.54350138  0.99382229  0.12816142     0.11300
C335        C  0.68318179  0.81758477  0.19882962    -0.14800
C336        C  0.70838390  0.84528443  0.17586620     0.07300
C337        C  0.74586102  0.84400416  0.16663610    -0.14800
C338        C  0.75489236  0.81225461  0.17781351    -0.14800
C339        C  0.72669553  0.78137270  0.19851302     0.07300
C340        C  0.69233503  0.78621394  0.21009774    -0.14800
H341        H  0.65452266  0.81817963  0.20683597     0.11300
H342        H  0.76610198  0.86504105  0.14908533     0.11300
H343        H  0.78166334  0.80954455  0.16839133     0.11300
H344        H  0.67023060  0.76342591  0.22628900     0.11300
C345        C  0.63741952  0.95593862  0.27464761    -0.14800
C346        C  0.65908545  0.00109304  0.28097608     0.07300
C347        C  0.67276753  0.03099765  0.25769519    -0.14800
C348        C  0.66531747  0.01619981  0.22882408    -0.14800
C349        C  0.64430725  0.97109218  0.22247433     0.07300
C350        C  0.63027657  0.94114217  0.24575992    -0.14800
H351        H  0.62656138  0.93191874  0.29203189     0.11300
H352        H  0.68949305  0.06594079  0.26175422     0.11300
H353        H  0.67669652  0.04026304  0.21145254     0.11300
H354        H  0.61405301  0.90621833  0.24169359     0.11300
C355        C  0.69552860  0.03115274  0.49229991    -0.14800
C356        C  0.67823951  0.99682232  0.47194198     0.07300
C357        C  0.65509379  0.95330921  0.48165743    -0.14800
C358        C  0.65085153  0.94554421  0.01060753    -0.14800
C359        C  0.66934954  0.97934065  0.03129939     0.07300
C360        C  0.69047946  0.02311861  0.02205917    -0.14800
H361        H  0.71368902  0.06492707  0.48510433     0.11300
H362        H  0.64202989  0.92645692  0.46622431     0.11300
H363        H  0.63455182  0.91156620  0.01741657     0.11300
H364        H  0.70533226  0.04957823  0.03774631     0.11300
C365        C  0.97897373  0.45695405  0.05379054    -0.14800
C366        C  0.94118062  0.41732338  0.04642702     0.07300
C367        C  0.90324724  0.41828143  0.03828786    -0.14800
C368        C  0.90375353  0.45837089  0.03670417    -0.14800
C369        C  0.94194022  0.49804644  0.04377023     0.07300
C370        C  0.97930412  0.49661050  0.05261618    -0.14800
H371        H  0.00862600  0.45739723  0.06055819     0.11300
H372        H  0.87362559  0.38827868  0.03257925     0.11300
H373        H  0.87439242  0.45835031  0.02976408     0.11300
H374        H  0.00932273  0.52635657  0.05812323     0.11300
C375        C  0.78759197  0.18566409  0.48454248    -0.14800
C376        C  0.83222205  0.21704373  0.48159559     0.07300
C377        C  0.85020484  0.22972022  0.45348159    -0.14800
C378        C  0.82543345  0.20851807  0.42883977    -0.14800
C379        C  0.78218687  0.17406865  0.43175623     0.07300
C380        C  0.76265818  0.16422951  0.45966533    -0.14800
H381        H  0.77321985  0.17776030  0.00464165     0.11300
H382        H  0.88466582  0.25356093  0.45072540     0.11300
H383        H  0.84154031  0.21584599  0.40772389     0.11300
H384        H  0.72970828  0.13689885  0.46250222     0.11300
C385        C  0.80028259  0.10126798  0.12641832    -0.14800
C386        C  0.79599657  0.06196215  0.11554080     0.07300
C387        C  0.82717082  0.06458492  0.09512538    -0.14800
C388        C  0.85901284  0.10526024  0.08378404    -0.14800
C389        C  0.86029597  0.14416926  0.09257024     0.07300
C390        C  0.83192753  0.14176945  0.11506885    -0.14800
H391        H  0.77709529  0.10069953  0.14223421     0.11300
H392        H  0.82491354  0.03507358  0.08621336     0.11300
H393        H  0.88057315  0.10585622  0.06667591     0.11300
H394        H  0.83228745  0.17102097  0.12271075     0.11300
C395        C  0.63287467  0.65663791  0.34067881    -0.14800
C396        C  0.64816577  0.64102585  0.36337801     0.07300
C397        C  0.66848078  0.61657162  0.35612221    -0.14800
C398        C  0.67487237  0.60938872  0.32699149    -0.14800
C399        C  0.66108451  0.62638298  0.30425797     0.07300
C400        C  0.63923373  0.64937916  0.31144882    -0.14800
H401        H  0.61683347  0.67531800  0.34546314     0.11300
H402        H  0.68013376  0.60344249  0.37298198     0.11300
H403        H  0.69134222  0.59107721  0.32232455     0.11300
H404        H  0.62799801  0.66275563  0.29449715     0.11300
C405        C  0.64197912  0.63852678  0.07099728    -0.14800
C406        C  0.67763177  0.65203653  0.05188424     0.07300
C407        C  0.71876775  0.66276606  0.06284105    -0.14800
C408        C  0.72484032  0.66158950  0.09267893    -0.14800
C409        C  0.69001076  0.65057205  0.11232261     0.07300
C410        C  0.64815558  0.63789554  0.10117227    -0.14800
H411        H  0.61017253  0.63093308  0.06274512     0.11300
H412        H  0.74666541  0.67372155  0.04830290     0.11300
H413        H  0.75745625  0.67109107  0.10033418     0.11300
H414        H  0.62068693  0.62898827  0.11573067     0.11300
C415        C  0.67959580  0.83346778  0.38813311    -0.14800
C416        C  0.70520831  0.83214342  0.41117095     0.07300
C417        C  0.74179509  0.87161115  0.42028706    -0.14800
C418        C  0.75009257  0.91172139  0.40846994    -0.14800
C419        C  0.72184287  0.91316915  0.38741127     0.07300
C420        C  0.68788274  0.87343914  0.37634783    -0.14800
H421        H  0.65143057  0.80373527  0.38030201     0.11300
H422        H  0.76235262  0.87181839  0.43787186     0.11300
H423        H  0.77647478  0.94168213  0.41757981     0.11300
H424        H  0.66559288  0.87326080  0.36005535     0.11300
C425        C  0.58582371  0.80974400  0.04330691    -0.14800
C426        C  0.59407202  0.79894656  0.07122110     0.07300
C427        C  0.59850280  0.76186168  0.07448107    -0.14800
C428        C  0.59932886  0.73872924  0.04993938    -0.14800
C429        C  0.59614584  0.75254239  0.02172590     0.07300
C430        C  0.58687928  0.78665732  0.01861184    -0.14800
H431        H  0.58339521  0.83891833  0.04029227     0.11300
H432        H  0.60596489  0.75361257  0.09566049     0.11300
H433        H  0.60716755  0.71289479  0.05279617     0.11300
H434        H  0.58457307  0.79608248  0.49890336     0.11300
C435        C  0.80645927  0.67051616  0.45455149    -0.14800
C436        C  0.80346015  0.70719314  0.46311561     0.07300
C437        C  0.83217837  0.73677053  0.98368316    -0.14800
C438        C  0.86430278  0.72874524  0.99545688    -0.14800
C439        C  0.86454853  0.68996416  0.98848733     0.07300
C440        C  0.83820202  0.66264235  0.46652773    -0.14800
H441        H  0.78162028  0.64568195  0.44063804     0.11300
H442        H  0.82981990  0.76445132  0.99164842     0.11300
H443        H  0.88632312  0.75083403  0.01188503     0.11300
H444        H  0.83720428  0.63223309  0.46114695     0.11300
C445        C  0.53921054  0.41822907  0.21147332    -0.14800
C446        C  0.50034849  0.41801285  0.20431867     0.07300
C447        C  0.50256553  0.45795322  0.19753876    -0.14800
C448        C  0.54232335  0.49724196  0.19846585    -0.14800
C449        C  0.58114625  0.49792656  0.20644454     0.07300
C450        C  0.57922535  0.45790361  0.21277266    -0.14800
H451        H  0.53849908  0.38791834  0.21666704     0.11300
H452        H  0.47336666  0.45893623  0.19149295     0.11300
H453        H  0.54236271  0.52728809  0.19348607     0.11300
H454        H  0.60852694  0.45730071  0.21902862     0.11300
C455        C  0.27218223  0.10457329  0.17228943    -0.14800
C456        C  0.30794257  0.14385925  0.16194306     0.07300
C457        C  0.33247220  0.14165492  0.13836151    -0.14800
C458        C  0.32408700  0.10115559  0.12727688    -0.14800
C459        C  0.29089649  0.06168319  0.13943310     0.07300
C460        C  0.26379123  0.06396528  0.16119419    -0.14800
H461        H  0.25250875  0.10496974  0.19036488     0.11300
H462        H  0.35992476  0.17120241  0.12955044     0.11300
H463        H  0.34556599  0.10082487  0.11044392     0.11300
H464        H  0.23807773  0.03434362  0.17120281     0.11300
C465        C  0.53681892  0.09040285  0.37829485    -0.14800
C466        C  0.49645721  0.05104608  0.37646915     0.07300
C467        C  0.49645872  0.01126097  0.37487975    -0.14800
C468        C  0.53568642  0.01063875  0.37526532    -0.14800
C469        C  0.57609318  0.04983434  0.37660625     0.07300
C470        C  0.57636808  0.08983205  0.37797610    -0.14800
H471        H  0.53777647  0.12152895  0.37978254     0.11300
H472        H  0.46594142  0.98032705  0.37390200     0.11300
H473        H  0.53437851  0.97932924  0.37387615     0.11300
H474        H  0.60709502  0.12054577  0.37896872     0.11300
C475        C  0.42995839  0.17121662  0.29600637    -0.14800
C476        C  0.41758715  0.17937991  0.32350472     0.07300
C477        C  0.40739862  0.21287195  0.32614561    -0.14800
C478        C  0.40488482  0.23449570  0.30139325    -0.14800
C479        C  0.41231695  0.22293573  0.27348797     0.07300
C480        C  0.42733482  0.19295140  0.27101337    -0.14800
H481        H  0.43670641  0.14462500  0.29338237     0.11300
H482        H  0.39674986  0.21899598  0.34694532     0.11300
H483        H  0.39297369  0.25733133  0.30376917     0.11300
H484        H  0.43252795  0.18302650  0.24969041     0.11300
C485        C  0.18818272  0.91386145  0.34186028    -0.13600
C486        C  0.21696254  0.91583427  0.36383090     0.07300
C487        C  0.21094518  0.87626659  0.37544809    -0.14800
C488        C  0.17991654  0.83602954  0.36348946    -0.14800
C489        C  0.15402590  0.83424819  0.33962081     0.07300
C490        C  0.15711128  0.87353200  0.32985456    -0.14800
H491        H  0.19183099  0.94363022  0.33235720     0.11300
H492        H  0.23229664  0.87641440  0.39245112     0.11300
H493        H  0.17804683  0.80644066  0.37190295     0.11300
H494        H  0.13752252  0.87344048  0.31166757     0.11300
C495        C  0.36312202  0.03238532  0.26011902    -0.14800
C496        C  0.34328132  0.99918680  0.28120982     0.07300
C497        C  0.32173050  0.95517052  0.27245717    -0.14800
C498        C  0.31717741  0.94454838  0.24286746    -0.14800
C499        C  0.33516280  0.97777248  0.22167645     0.07300
C500        C  0.35969585  0.02169564  0.23050717    -0.14800
H501        H  0.38015517  0.06655459  0.26651589     0.11300
H502        H  0.30613034  0.92909999  0.28840735     0.11300
H503        H  0.29818518  0.91045173  0.23649215     0.11300
H504        H  0.37362483  0.04780539  0.21449418     0.11300
C505        C  0.34550681  0.95838180  0.47817473    -0.14800
C506        C  0.36746497  0.00360528  0.47207519     0.07300
C507        C  0.38227347  0.03330066  0.49545031    -0.14800
C508        C  0.37363755  0.01676532  0.02386694    -0.14800
C509        C  0.35009462  0.97162761  0.03002769     0.07300
C510        C  0.33541945  0.94174367  0.00673043    -0.14800
H511        H  0.33357025  0.93455268  0.46068233     0.11300
H512        H  0.39935718  0.06830055  0.49153260     0.11300
H513        H  0.38526419  0.04068744  0.04129680     0.11300
H514        H  0.31719217  0.90676153  0.01072314     0.11300
C515        C  0.03197075  0.51978717  0.29697237    -0.14800
C516        C  0.07142324  0.56003362  0.29522368     0.07300
C517        C  0.11099113  0.55958800  0.29235157    -0.14800
C518        C  0.11076187  0.51959960  0.29084635    -0.14800
C519        C  0.07102792  0.47944281  0.29264600     0.07300
C520        C  0.03178368  0.48025570  0.29578600    -0.14800
H521        H  0.00083059  0.51865061  0.29943189     0.11300
H522        H  0.14194625  0.59001922  0.29102047     0.11300
H523        H  0.14157808  0.52010004  0.28830969     0.11300
H524        H  0.00050838  0.45014170  0.29704056     0.11300
C525        C  0.14978772  0.24978795  0.24468854    -0.14800
C526        C  0.14947689  0.28870050  0.23852031     0.07300
C527        C  0.17822996  0.31707783  0.21700745    -0.14800
C528        C  0.21003935  0.30947777  0.20463240    -0.14800
C529        C  0.21372687  0.27330126  0.21343563     0.07300
C530        C  0.18163867  0.24208366  0.23215137    -0.14800
H531        H  0.12789876  0.22713227  0.26101482     0.11300
H532        H  0.17837809  0.34696652  0.21131058     0.11300
H533        H  0.23424097  0.33400238  0.19013762     0.11300
H534        H  0.18395203  0.21413093  0.23952504     0.11300
C535        C  0.99163902  0.33374403  0.40210559    -0.14800
C536        C  0.02147542  0.32271147  0.38987150     0.07300
C537        C  0.04702213  0.31289426  0.40861205    -0.14800
C538        C  0.04108553  0.31157053  0.43870713    -0.14800
C539        C  0.01007079  0.32072520  0.45079026     0.07300
C540        C  0.98593693  0.33270580  0.43247797    -0.14800
H541        H  0.97157085  0.34142238  0.38822833     0.11300
H542        H  0.07088021  0.30497592  0.40000869     0.11300
H543        H  0.05976706  0.30202754  0.45256699     0.11300
H544        H  0.96124012  0.33904589  0.44155121     0.11300
C545        C  0.97385851  0.32280891  0.19128971    -0.14800
C546        C  0.01872872  0.34603942  0.19841079     0.07300
C547        C  0.04955407  0.36427304  0.17563386    -0.14800
C548        C  0.03600702  0.35849888  0.14653839    -0.14800
C549        C  0.99122585  0.33425428  0.13934103     0.07300
C550        C  0.96027089  0.31704051  0.16210811    -0.14800
H551        H  0.94916766  0.30850939  0.20825067     0.11300
H552        H  0.08434413  0.38270317  0.18021933     0.11300
H553        H  0.06083153  0.37261662  0.12964198     0.11300
H554        H  0.92553453  0.29834920  0.15739435     0.11300
C555        C  0.88664174  0.12865765  0.33264813    -0.14800
C556        C  0.84801695  0.12901701  0.32536814     0.07300
C557        C  0.85030502  0.15837553  0.30375560    -0.14800
C558        C  0.89061318  0.18968531  0.29208102    -0.14800
C559        C  0.92983376  0.19266822  0.30172965     0.07300
C560        C  0.92728048  0.16027293  0.32090801    -0.14800
H561        H  0.88599753  0.10635639  0.34914147     0.11300
H562        H  0.82118503  0.15916401  0.29723663     0.11300
H563        H  0.89138153  0.21395358  0.27722232     0.11300
H564        H  0.95691317  0.16188784  0.32897706     0.11300
C565        C  0.47293909  0.48032727  0.44895366    -0.14800
C566        C  0.43439518  0.47995883  0.45749382     0.07300
C567        C  0.43700287  0.51999688  0.46483823    -0.14800
C568        C  0.47735585  0.55935882  0.46380370    -0.14800
C569        C  0.51590713  0.55926097  0.45591342     0.07300
C570        C  0.51306580  0.51929434  0.44835030    -0.14800
H571        H  0.47238402  0.45023963  0.44324564     0.11300
H572        H  0.40797879  0.52085386  0.47163750     0.11300
H573        H  0.47853992  0.58969646  0.46965610     0.11300
H574        H  0.54200285  0.51806993  0.44179878     0.11300
C575        C  0.12638585  0.25070172  0.51019663    -0.14800
C576        C  0.16544537  0.29016680  0.51574868     0.07300
C577        C  0.16313454  0.31658741  0.03620357    -0.14800
C578        C  0.12346198  0.30959560  0.04787518    -0.14800
C579        C  0.08359764  0.27291610  0.03953953     0.07300
C580        C  0.08649226  0.24320245  0.52226194    -0.14800
H581        H  0.12599890  0.22741851  0.49460503     0.11300
H582        H  0.19283496  0.34678036  0.04152249     0.11300
H583        H  0.12365028  0.33480369  0.06152517     0.11300
H584        H  0.05636816  0.21460485  0.51537826     0.11300
C585        C  0.24848367  0.39883362  0.37690163    -0.14800
C586        C  0.22861021  0.39479070  0.40424109     0.07300
C587        C  0.18820239  0.39342765  0.40567207    -0.14800
C588        C  0.16652768  0.39285159  0.37999848    -0.14800
C589        C  0.18459263  0.39284556  0.35259744     0.07300
C590        C  0.22646132  0.39755700  0.35118300    -0.14800
H591        H  0.27893353  0.39835399  0.37535266     0.11300
H592        H  0.17171722  0.38890910  0.42645932     0.11300
H593        H  0.13368249  0.38802265  0.38150657     0.11300
H594        H  0.24024491  0.39609097  0.33033321     0.11300
C595        C  0.33835227  0.36322053  0.07695824    -0.14800
C596        C  0.35139233  0.34547517  0.05423554     0.07300
C597        C  0.37188359  0.32115298  0.06124377    -0.14800
C598        C  0.37873090  0.31438709  0.09038213    -0.14800
C599        C  0.36524352  0.33183701  0.11306792     0.07300
C600        C  0.34515222  0.35647330  0.10596616    -0.14800
H601        H  0.32252592  0.38214243  0.07238946     0.11300
H602        H  0.38208078  0.30679380  0.04424000     0.11300
H603        H  0.39410728  0.29509815  0.09511750     0.11300
H604        H  0.33438836  0.37049993  0.12285148     0.11300
C605        C  0.36348804  0.33400384  0.35106409    -0.14800
C606        C  0.32347881  0.32727327  0.36252238     0.07300
C607        C  0.29045673  0.32239431  0.34304747    -0.14800
C608        C  0.29612700  0.32120749  0.31299380    -0.14800
C609        C  0.33512577  0.32567293  0.30176201     0.07300
C610        C  0.36923752  0.33316713  0.32083124    -0.14800
H611        H  0.38958684  0.33803299  0.36543204     0.11300
H612        H  0.25946495  0.31779292  0.35101588     0.11300
H613        H  0.26933355  0.31497589  0.29852321     0.11300
H614        H  0.39928853  0.33593981  0.31243217     0.11300
C615        C  0.25861288  0.16496989  0.42905650    -0.14800
C616        C  0.28708559  0.19575523  0.44958647     0.07300
C617        C  0.32100452  0.19029746  0.46112901    -0.14800
C618        C  0.32928797  0.15815700  0.45008000    -0.14800
C619        C  0.30379290  0.13047665  0.42726727     0.07300
C620        C  0.26685784  0.13256943  0.41802686    -0.14800
H621        H  0.23228872  0.16827174  0.41959763     0.11300
H622        H  0.34335918  0.21308274  0.47714370     0.11300
H623        H  0.35761258  0.15700506  0.45804271     0.11300
H624        H  0.24654077  0.11171145  0.40052042     0.11300
Fe625      Fe  0.35129422  0.33284676  0.95817051     1.65800
Fe626      Fe  0.29522003  0.38262286  0.98123024     1.73200
Fe627      Fe  0.24253991  0.28888865  0.94272006     1.54400
O628        O  0.27492489  0.30341330  0.90327779    -0.83100
O629        O  0.23163704  0.34200712  0.99638733    -0.81500
O630        O  0.34618643  0.32853432  0.91267270    -0.85700
O631        O  0.32284264  0.26618572  0.96233843    -0.80500
O632        O  0.22065985  0.33174563  0.93212241    -0.82300
O633        O  0.31845965  0.37086477  0.51899231    -0.85000
C634        C  0.28666664  0.23334987  0.95533359     0.95700
C635        C  0.31446833  0.31826616  0.89494191     1.03200
O636        O  0.29668986  0.33441621  0.96107028    -1.14000
O637        O  0.35772988  0.43203890  0.97060825    -0.76400
O638        O  0.39231442  0.39907354  0.95352813    -0.79900
O639        O  0.25381500  0.23687968  0.94838328    -0.80600
C640        C  0.39170125  0.43345505  0.96029563     0.94600
O641        O  0.35957604  0.34262611  0.50292166    -0.78600
O642        O  0.27373048  0.39869889  0.94350326    -0.83800
C643        C  0.20360855  0.30122000  0.99729489     0.97300
C644        C  0.24103181  0.37279999  0.92809438     1.03200
O645        O  0.20741566  0.27357062  0.98150431    -0.79400
C646        C  0.34315539  0.35452592  0.52350939     1.01500
Fe647      Fe  0.00805915  0.33508025  0.79480922     1.65800
Fe648      Fe  0.11356826  0.38347978  0.77138944     1.73200
Fe649      Fe  0.07133343  0.28961367  0.81028177     1.54400
O650        O  0.05257326  0.30306227  0.84944968    -0.83100
O651        O  0.13647803  0.34268290  0.75715170    -0.81500
O652        O  0.00993305  0.33231015  0.84031963    -0.85700
O653        O  0.96894030  0.26836079  0.79249821    -0.80500
O654        O  0.13573971  0.33282807  0.82151475    -0.82300
O655        O  0.07601302  0.36865035  0.73384256    -0.85000
C656        C  0.97188085  0.23499608  0.79854731     0.95700
C657        C  0.02944347  0.31951637  0.85790988     1.03200
O658        O  0.06356979  0.33564824  0.79178986    -1.14000
O659        O  0.10139219  0.43370663  0.78082568    -0.76400
O660        O  0.03396217  0.40148828  0.79807530    -0.79900
O661        O  0.00829012  0.23761558  0.80403408    -0.80600
C662        C  0.06898795  0.43557483  0.79084726     0.94600
O663        O  0.00598793  0.33833151  0.74946556    -0.78600
O664        O  0.15040340  0.39985431  0.80946004    -0.83800
C665        C  0.12311524  0.30183889  0.75630112     0.97300
C666        C  0.15576367  0.37383469  0.82579115     1.03200
O667        O  0.09133724  0.27439678  0.77189439    -0.79400
C668        C  0.03484425  0.35164877  0.72907601     1.01500
Fe669      Fe  0.35395709  0.98931323  0.87646958     1.65800
Fe670      Fe  0.40354627  0.09535813  0.89876100     1.73200
Fe671      Fe  0.31398050  0.05510775  0.85676904     1.54400
O672        O  0.33393949  0.04050888  0.81824415    -0.83100
O673        O  0.36091995  0.11717146  0.91199589    -0.81500
O674        O  0.34379974  0.98472552  0.83165312    -0.85700
O675        O  0.28780231  0.95440527  0.88472046    -0.80500
O676        O  0.35632767  0.12090278  0.84896616    -0.82300
O677        O  0.38721870  0.05832191  0.93657330    -0.85000
C678        C  0.25755021  0.95554405  0.87075338     0.95700
C679        C  0.34024374  0.00877433  0.81229683     1.03200
O680        O  0.35710357  0.04608062  0.87763654    -1.14000
O681        O  0.45231106  0.08053598  0.88967910    -0.76400
O682        O  0.41972875  0.01518832  0.86850348    -0.79900
O683        O  0.26327274  0.99057156  0.85904272    -0.80600
C684        C  0.45378602  0.04898753  0.87753390     0.94600
O685        O  0.36328396  0.98977778  0.92094594    -0.78600
O686        O  0.42260538  0.13414169  0.86113571    -0.83800
C687        C  0.31963257  0.10258780  0.91161010     0.97300
C688        C  0.39755122  0.14237955  0.84589934     1.03200
O689        O  0.29391029  0.07117047  0.89500431    -0.79400
C690        C  0.37323104  0.01776391  0.94130916     1.01500
Fe691      Fe  0.35649291  0.33992869  0.70810447     1.65800
Fe692      Fe  0.40386396  0.27981998  0.68872573     1.73200
Fe693      Fe  0.30882055  0.23409276  0.72905660     1.54400
O694        O  0.31228642  0.27326612  0.76394600    -0.83100
O695        O  0.36241725  0.21792492  0.67239521    -0.81500
O696        O  0.36010185  0.34346643  0.75326364    -0.85700
O697        O  0.28959173  0.31193707  0.71063245    -0.80500
O698        O  0.35346903  0.22370403  0.75069712    -0.82300
O699        O  0.39285258  0.30571156  0.65040024    -0.85000
C700        C  0.25579355  0.27429504  0.71053898     0.95700
C701        C  0.33612079  0.31327641  0.77125488     1.03200
O702        O  0.35645680  0.28438724  0.70840036    -1.14000
O703        O  0.45470849  0.34074299  0.70141831    -0.76400
O704        O  0.42289850  0.38071820  0.70559218    -0.79900
O705        O  0.25830291  0.23972310  0.71085384    -0.80600
C706        C  0.45687055  0.37744446  0.70427154     0.94600
O707        O  0.35319305  0.33711774  0.66334234    -0.78600
O708        O  0.41702963  0.25390074  0.72613314    -0.83800
C709        C  0.32412544  0.18633247  0.67744760     0.97300
C710        C  0.39332187  0.23383583  0.74827987     1.03200
O711        O  0.29970799  0.18841397  0.69708270    -0.79400
C712        C  0.37086479  0.32464472  0.64407677     1.01500
Fe713      Fe  0.65652161  0.63655837  0.95855039     1.65800
Fe714      Fe  0.60867954  0.69551968  0.93798861     1.73200
Fe715      Fe  0.70182146  0.74214446  0.97990785     1.54400
O716        O  0.70394749  0.70439880  0.51339353    -0.83100
O717        O  0.65041088  0.75751165  0.92167626    -0.81500
O718        O  0.65468615  0.63457932  0.50340251    -0.85700
O719        O  0.72354998  0.66599043  0.96165843    -0.80500
O720        O  0.66032977  0.75182206  0.50178965    -0.82300
O721        O  0.62104176  0.66938487  0.90032945    -0.85000
C722        C  0.75709443  0.70388468  0.96184830     0.95700
C723        C  0.67942936  0.66470877  0.52104675     1.03200
O724        O  0.65571326  0.69170260  0.95849403    -1.14000
O725        O  0.55793671  0.63440769  0.95063824    -0.76400
O726        O  0.59029616  0.59503526  0.95557916    -0.79900
O727        O  0.75401875  0.73820115  0.96234401    -0.80600
C728        C  0.55613741  0.59790405  0.95376439     0.94600
O729        O  0.66107511  0.63878057  0.91380998    -0.78600
O730        O  0.59365360  0.72142495  0.97462000    -0.83800
C731        C  0.68765100  0.78989219  0.92794209     0.97300
C732        C  0.61568587  0.74067637  0.99740074     1.03200
O733        O  0.71094165  0.78834442  0.94847602    -0.79400
C734        C  0.64314323  0.65043818  0.89433898     1.01500
Fe735      Fe  0.00641973  0.33996850  0.54430218     1.65800
Fe736      Fe  0.89945758  0.27921317  0.56477905     1.73200
Fe737      Fe  0.94951575  0.23336391  0.52535311     1.54400
O738        O  0.98415767  0.27167915  0.98901005    -0.83100
O739        O  0.88073240  0.21837090  0.58244135    -0.81500
O740        O  0.00566881  0.34179656  0.99882632    -0.85700
O741        O  0.04672854  0.31347833  0.54199463    -0.80500
O742        O  0.89312105  0.22223018  0.00224709    -0.82300
O743        O  0.93707243  0.30751667  0.60238592    -0.85000
C744        C  0.04377135  0.27625795  0.54292693     0.95700
C745        C  0.99996475  0.31141191  0.98127304     1.03200
O746        O  0.95148704  0.28390875  0.54505732    -1.14000
O747        O  0.90789075  0.33920747  0.55084038    -0.76400
O748        O  0.97967601  0.37954741  0.54652801    -0.79900
O749        O  0.00693582  0.24121819  0.54336174    -0.80600
C750        C  0.94238034  0.37607234  0.54804915     0.94600
O751        O  0.00809764  0.33891114  0.58909080    -0.78600
O752        O  0.85953980  0.25074948  0.52817015    -0.83800
C753        C  0.88804701  0.18708417  0.57795762     0.97300
C754        C  0.86286937  0.22994159  0.50642490     1.03200
O755        O  0.91436241  0.18889375  0.55827168    -0.79400
C756        C  0.97810378  0.32691576  0.60847343     1.01500
Fe757      Fe  0.65795561  0.98932983  0.87628987     1.65800
Fe758      Fe  0.71498490  0.09559986  0.85431164     1.73200
Fe759      Fe  0.76365337  0.05516841  0.89670550     1.54400
O760        O  0.72847601  0.03981700  0.93475659    -0.83100
O761        O  0.78013538  0.11860214  0.84231517    -0.81500
O762        O  0.66204973  0.98515766  0.92141050    -0.85700
O763        O  0.68898775  0.95396027  0.86937694    -0.80500
O764        O  0.78589447  0.12057586  0.90497869    -0.82300
O765        O  0.69598290  0.05909251  0.81620300    -0.85000
C766        C  0.72082245  0.95545648  0.88298358     0.95700
C767        C  0.69002726  0.00888596  0.94071913     1.03200
O768        O  0.71174220  0.04608312  0.87544125    -1.14000
O769        O  0.65103365  0.08042790  0.86212419    -0.76400
O770        O  0.61739009  0.01473418  0.88284419    -0.79900
O771        O  0.75049743  0.99076116  0.89421994    -0.80600
C772        C  0.61753579  0.04863928  0.87368917     0.94600
O773        O  0.65122627  0.99019591  0.83152260    -0.78600
O774        O  0.73272200  0.13335313  0.89229665    -0.83800
C775        C  0.80714223  0.10445176  0.84283427     0.97300
C776        C  0.76557141  0.14147665  0.90797999     1.03200
O777        O  0.80102554  0.07244863  0.85898039    -0.79400
C778        C  0.66972270  0.01847781  0.81127373     1.01500
Fe779      Fe  0.65797605  0.98660522  0.62692318     1.65800
Fe780      Fe  0.60920360  0.88029734  0.64885352     1.73200
Fe781      Fe  0.69938391  0.92190794  0.60644126     1.54400
O782        O  0.68078475  0.93845260  0.56844232    -0.83100
O783        O  0.65158024  0.85798359  0.66121824    -0.81500
O784        O  0.66782512  0.99216132  0.58199107    -0.85700
O785        O  0.72408186  0.02239796  0.63466282    -0.80500
O786        O  0.65627870  0.85685434  0.59677620    -0.82300
O787        O  0.62576559  0.91680937  0.68689659    -0.85000
C788        C  0.75533905  0.02138297  0.62182453     0.95700
C789        C  0.67274537  0.96897292  0.56260478     1.03200
O790        O  0.65567770  0.93008054  0.62768808    -1.14000
O791        O  0.55992838  0.89478141  0.64046712    -0.76400
O792        O  0.59213934  0.96019259  0.61937066    -0.79900
O793        O  0.75053207  0.98643342  0.61040237    -0.80600
C794        C  0.55818096  0.92620251  0.62838349     0.94600
O795        O  0.64882469  0.98533847  0.67157370    -0.78600
O796        O  0.58998837  0.84185494  0.61126212    -0.83800
C797        C  0.69259874  0.87143056  0.66025534     0.97300
C798        C  0.61486426  0.83450482  0.59501869     1.03200
O799        O  0.71865739  0.90307198  0.64383531    -0.79400
C800        C  0.63933033  0.95722782  0.69183719     1.01500
Fe801      Fe  0.00773104  0.63837950  0.79286273     1.65800
Fe802      Fe  0.11459791  0.69768867  0.81334333     1.73200
Fe803      Fe  0.06726479  0.74403583  0.77162337     1.54400
O804        O  0.03249001  0.70518912  0.73681530    -0.83100
O805        O  0.13419144  0.75934931  0.82965503    -0.81500
O806        O  0.00882322  0.63492533  0.74779574    -0.85700
O807        O  0.96945783  0.66705327  0.79007873    -0.80500
O808        O  0.12270845  0.75329299  0.75083353    -0.82300
O809        O  0.07673808  0.67150728  0.85113218    -0.85000
C810        C  0.97320737  0.70465287  0.78934976     0.95700
C811        C  0.01579058  0.66513406  0.72972831     1.03200
O812        O  0.06342053  0.69364976  0.79290866    -1.14000
O813        O  0.10476931  0.63683781  0.80069682    -0.76400
O814        O  0.03308806  0.59755433  0.79530707    -0.79900
O815        O  0.01039501  0.73928045  0.78857482    -0.80600
C816        C  0.07009376  0.60040449  0.79717606     0.94600
O817        O  0.00602299  0.64049051  0.83769899    -0.78600
O818        O  0.15508161  0.72358412  0.77673094    -0.83800
C819        C  0.12812449  0.79112137  0.82399588     0.97300
C820        C  0.15218921  0.74307444  0.75416819     1.03200
O821        O  0.10312204  0.78954199  0.80357456    -0.79400
C822        C  0.03571709  0.65247455  0.85715952     1.01500
Fe823      Fe  0.35404531  0.98598014  0.62627213     1.65800
Fe824      Fe  0.29662122  0.88024647  0.60373920     1.73200
Fe825      Fe  0.24853211  0.92050650  0.64765900     1.54400
O826        O  0.28427849  0.93574347  0.68542415    -0.83100
O827        O  0.23162407  0.85816059  0.59219940    -0.81500
O828        O  0.35044002  0.99040485  0.67152139    -0.85700
O829        O  0.32305321  0.02143756  0.61980313    -0.80500
O830        O  0.22654565  0.85505560  0.65580353    -0.82300
O831        O  0.31561530  0.91686286  0.56577242    -0.85000
C832        C  0.29146608  0.02030000  0.63370237     0.95700
C833        C  0.32269086  0.96687279  0.69111091     1.03200
O834        O  0.30009583  0.92946691  0.62558073    -1.14000
O835        O  0.36057003  0.89476020  0.61114584    -0.76400
O836        O  0.39411789  0.95992837  0.63247023    -0.79900
O837        O  0.26185965  0.98517980  0.64536459    -0.80600
C838        C  0.39399347  0.92613663  0.62301020     0.94600
O839        O  0.36072476  0.98534929  0.58132242    -0.78600
O840        O  0.27895116  0.84196283  0.64119334    -0.83800
C841        C  0.20456303  0.87221650  0.59334321     0.97300
C842        C  0.24674564  0.83386626  0.65759894     1.03200
O843        O  0.21024149  0.90327137  0.61035143    -0.79400
C844        C  0.34227605  0.95736696  0.56094681     1.01500
Fe845      Fe  0.66258553  0.64099302  0.70804899     1.65800
Fe846      Fe  0.71935510  0.59218810  0.73078212     1.73200
Fe847      Fe  0.77063717  0.68457710  0.69113134     1.54400
O848        O  0.73839378  0.66813697  0.65241102    -0.83100
O849        O  0.78405407  0.63386760  0.74381516    -0.81500
O850        O  0.66854756  0.64864640  0.66243911    -0.85700
O851        O  0.69160235  0.70743066  0.71456235    -0.80500
O852        O  0.79287238  0.64134001  0.68188855    -0.82300
O853        O  0.69840099  0.60761501  0.76876083    -0.85000
C854        C  0.72581929  0.73967803  0.70415407     0.95700
C855        C  0.69963649  0.65680319  0.64442620     1.03200
O856        O  0.71708250  0.63965635  0.71042732    -1.14000
O857        O  0.65562677  0.54274967  0.72231105    -0.76400
O858        O  0.62291332  0.57503040  0.70123891    -0.79900
O859        O  0.75769443  0.73586758  0.69490605    -0.80600
C860        C  0.62250184  0.54098290  0.71025726     0.94600
O861        O  0.65460266  0.63293237  0.75328268    -0.78600
O862        O  0.73836456  0.57483814  0.69235407    -0.83800
C863        C  0.81108260  0.67502229  0.74475550     0.97300
C864        C  0.77087295  0.60061998  0.67663701     1.03200
O865        O  0.80569461  0.70211521  0.72955688    -0.79400
C866        C  0.67200576  0.62186211  0.77364479     1.01500
Fe867      Fe  0.00703955  0.64250581  0.54341720     1.65800
Fe868      Fe  0.90146131  0.59381702  0.52030868     1.73200
Fe869      Fe  0.94208117  0.68580294  0.56004911     1.54400
O870        O  0.95848499  0.66972079  0.59901286    -0.83100
O871        O  0.87853130  0.63514549  0.50665150    -0.81500
O872        O  0.00799783  0.64919323  0.58881144    -0.85700
O873        O  0.04503020  0.70943095  0.53783692    -0.80500
O874        O  0.87678577  0.64246935  0.56958906    -0.82300
O875        O  0.93640512  0.60961422  0.98208966    -0.85000
C876        C  0.04198520  0.74159225  0.54723493     0.95700
C877        C  0.98541960  0.65761006  0.60687824     1.03200
O878        O  0.95106790  0.64115526  0.54085746    -1.14000
O879        O  0.91480109  0.54427005  0.52928508    -0.76400
O880        O  0.98014846  0.57599692  0.54981928    -0.79900
O881        O  0.00580484  0.73732205  0.55570170    -0.80600
C882        C  0.94572477  0.54202257  0.54145152     0.94600
O883        O  0.00498593  0.63382161  0.99827027    -0.78600
O884        O  0.86427552  0.57605016  0.55838059    -0.83800
C885        C  0.89246019  0.67620276  0.50578731     0.97300
C886        C  0.85685410  0.60146015  0.57387655     1.03200
O887        O  0.92421609  0.70317100  0.52155171    -0.79400
C888        C  0.97715238  0.62374361  0.97762313     1.01500
C889        C  0.81714556  0.57553638  0.65098135    -0.14800
C890        C  0.78288787  0.58495089  0.65036048     0.07300
C891        C  0.76784388  0.59078819  0.62334980    -0.14800
C892        C  0.78911112  0.59108355  0.59749376    -0.14800
C893        C  0.82530107  0.58473428  0.59819301     0.07300
C894        C  0.83797851  0.57498475  0.62494076    -0.14800
H895        H  0.83005176  0.57224891  0.67164669     0.11300
H896        H  0.74214861  0.59911374  0.62248984     0.11300
H897        H  0.77968181  0.59994023  0.57725847     0.11300
H898        H  0.86680681  0.57149062  0.62604634     0.11300
C899        C  0.12474531  0.84670352  0.58401173    -0.14800
C900        C  0.16406139  0.84866218  0.57549163     0.07300
C901        C  0.16286553  0.82188920  0.55231559    -0.14800
C902        C  0.12294588  0.79007671  0.54052631    -0.14800
C903        C  0.08313110  0.78419626  0.55161753     0.07300
C904        C  0.08458299  0.81474391  0.57212793    -0.14800
H905        H  0.12456286  0.86713223  0.60160755     0.11300
H906        H  0.19268248  0.82327112  0.54472088     0.11300
H907        H  0.12318647  0.76769250  0.52442717     0.11300
H908        H  0.05454841  0.81136914  0.58106263     0.11300
C909        C  0.22691950  0.78689780  0.73238691    -0.14800
C910        C  0.18285759  0.75420156  0.72958955     0.07300
C911        C  0.16488796  0.74084633  0.70159415    -0.14800
C912        C  0.18877648  0.76341799  0.67693215    -0.14800
C913        C  0.23106440  0.79942771  0.67989920     0.07300
C914        C  0.25100645  0.80949928  0.70753305    -0.14800
H915        H  0.24102683  0.79823234  0.75380373     0.11300
H916        H  0.13073171  0.71600647  0.69905444     0.11300
H917        H  0.17252684  0.75582577  0.65593745     0.11300
H918        H  0.28324848  0.83794634  0.71028243     0.11300
C919        C  0.97651636  0.62314955  0.89503307    -0.14800
C920        C  0.02141806  0.64386131  0.88813234     0.07300
C921        C  0.05187586  0.65648110  0.91103659    -0.14800
C922        C  0.03765546  0.64923157  0.94016271    -0.14800
C923        C  0.99269819  0.62930525  0.94694839     0.07300
C924        C  0.96238678  0.61598598  0.92398418    -0.14800
H925        H  0.95204220  0.61276332  0.87803298     0.11300
H926        H  0.08670275  0.67238006  0.90649649     0.11300
H927        H  0.06189524  0.65987822  0.95733188     0.11300
H928        H  0.92752213  0.60036353  0.92832133     0.11300
C929        C  0.02645296  0.64251373  0.68020164    -0.14800
C930        C  0.00303746  0.65458705  0.69921257     0.07300
C931        C  0.97223505  0.66458617  0.68804013    -0.14800
C932        C  0.96563427  0.66389634  0.65813641    -0.14800
C933        C  0.99039081  0.65397387  0.63863881     0.07300
C934        C  0.02021562  0.64227428  0.64996939    -0.14800
H935        H  0.05109080  0.63566497  0.68860475     0.11300
H936        H  0.95442730  0.67459906  0.70248418     0.11300
H937        H  0.94207839  0.67268320  0.65033223     0.11300
H938        H  0.03963512  0.63434927  0.63552562     0.11300
C939        C  0.89244908  0.66938313  0.79489224    -0.14800
C940        C  0.93206753  0.70609870  0.78613860     0.07300
C941        C  0.93041288  0.73750312  0.76805039    -0.14800
C942        C  0.89021552  0.72959461  0.75634294    -0.14800
C943        C  0.85127745  0.69017696  0.76259084     0.07300
C944        C  0.85265678  0.66149725  0.78325830    -0.14800
H945        H  0.89255027  0.64468597  0.80890564     0.11300
H946        H  0.96042430  0.76593579  0.76070634     0.11300
H947        H  0.89020674  0.75245416  0.74056488     0.11300
H948        H  0.82323396  0.63120343  0.78895431     0.11300
C949        C  0.47545168  0.96432149  0.62471409    -0.14800
C950        C  0.43528057  0.92478635  0.62472112     0.07300
C951        C  0.43555657  0.88501919  0.62511855    -0.14800
C952        C  0.47541250  0.88502461  0.62617103    -0.14800
C953        C  0.51554773  0.92477861  0.62598569     0.07300
C954        C  0.51499146  0.96431802  0.62505086    -0.14800
H955        H  0.47638007  0.99548767  0.62401129     0.11300
H956        H  0.40503838  0.85406076  0.62498542     0.11300
H957        H  0.47488575  0.85406695  0.62696300     0.11300
H958        H  0.54527777  0.99550965  0.62519568     0.11300
C959        C  0.68172971  0.81718283  0.69916457    -0.14800
C960        C  0.70872226  0.84648673  0.67740469     0.07300
C961        C  0.74715594  0.84616975  0.66940867    -0.14800
C962        C  0.75557488  0.81392906  0.68051601    -0.14800
C963        C  0.72578582  0.78158419  0.69989188     0.07300
C964        C  0.69017472  0.78527803  0.71029170    -0.14800
H965        H  0.65224865  0.81695092  0.70624224     0.11300
H966        H  0.76878681  0.86844836  0.65282618     0.11300
H967        H  0.78338755  0.81217913  0.67205052     0.11300
H968        H  0.66674230  0.76135508  0.72541402     0.11300
C969        C  0.63922451  0.95778447  0.77452557    -0.14800
C970        C  0.66063651  0.00292509  0.78070625     0.07300
C971        C  0.67413608  0.03279976  0.75742130    -0.14800
C972        C  0.66644231  0.01788961  0.72861074    -0.14800
C973        C  0.64541877  0.97275061  0.72242265     0.07300
C974        C  0.63186240  0.94289025  0.74572255    -0.14800
H975        H  0.62868455  0.93386114  0.79195767     0.11300
H976        H  0.69076380  0.06775429  0.76143552     0.11300
H977        H  0.67759584  0.04184341  0.71117461     0.11300
H978        H  0.61576640  0.90795390  0.74173201     0.11300
C979        C  0.69561908  0.03292070  0.99232067    -0.14800
C980        C  0.67856195  0.99903778  0.97160543     0.07300
C981        C  0.65486971  0.95534131  0.98091216    -0.14800
C982        C  0.65182302  0.94419942  0.51146002    -0.14800
C983        C  0.67057740  0.97852801  0.53178791     0.07300
C984        C  0.69115071  0.02205853  0.52210930    -0.14800
H985        H  0.71413779  0.06685814  0.98548490     0.11300
H986        H  0.64192016  0.92879227  0.96524795     0.11300
H987        H  0.63584228  0.91038121  0.51863064     0.11300
H988        H  0.70613239  0.04891468  0.53749968     0.11300
C989        C  0.97807446  0.45643071  0.55625181    -0.14800
C990        C  0.94073570  0.41732207  0.54751898     0.07300
C991        C  0.90350274  0.41891863  0.53846470    -0.14800
C992        C  0.90450610  0.45927096  0.53702968    -0.14800
C993        C  0.94249944  0.49854918  0.54509195     0.07300
C994        C  0.97889459  0.49632348  0.55519095    -0.14800
H995        H  0.00708084  0.45629733  0.56388075     0.11300
H996        H  0.87419428  0.38929243  0.53178484     0.11300
H997        H  0.87581710  0.45980361  0.52918715     0.11300
H998        H  0.00863408  0.52566243  0.56168332     0.11300
C999        C  0.78763674  0.18834993  0.98316364    -0.14800
C1000       C  0.83234392  0.21950177  0.98022735     0.07300
C1001       C  0.85041862  0.23190492  0.95210803    -0.14800
C1002       C  0.82576957  0.21027663  0.92752249    -0.14800
C1003       C  0.78252107  0.17585047  0.93051586     0.07300
C1004       C  0.76278510  0.16657788  0.95834009    -0.14800
H1005       H  0.77326121  0.17481818  0.50601778     0.11300
H1006       H  0.88491235  0.25564427  0.94934843     0.11300
H1007       H  0.84195234  0.21727872  0.90643954     0.11300
H1008       H  0.72978980  0.13933797  0.96122289     0.11300
C1009       C  0.80076711  0.10284574  0.62789392    -0.14800
C1010       C  0.79695839  0.06358329  0.61732210     0.07300
C1011       C  0.82906581  0.06629061  0.59772515    -0.14800
C1012       C  0.86135761  0.10698062  0.58671284    -0.14800
C1013       C  0.86210458  0.14581843  0.59495365     0.07300
C1014       C  0.83285795  0.14338749  0.61684018    -0.14800
H1015       H  0.77689948  0.10221347  0.64313618     0.11300
H1016       H  0.82727073  0.03681695  0.58914130     0.11300
H1017       H  0.88362251  0.10760795  0.57013012     0.11300
H1018       H  0.83278971  0.17260039  0.62408312     0.11300
C1019       C  0.63163194  0.65514794  0.84056841    -0.14800
C1020       C  0.64851461  0.64141885  0.86339344     0.07300
C1021       C  0.67119403  0.61917679  0.85638953    -0.14800
C1022       C  0.67784077  0.61192758  0.82733386    -0.14800
C1023       C  0.66197860  0.62668024  0.80446630     0.07300
C1024       C  0.63821037  0.64779127  0.81144117    -0.14800
H1025       H  0.61383373  0.67215837  0.84516648     0.11300
H1026       H  0.68435264  0.60773830  0.87336520     0.11300
H1027       H  0.69601189  0.59526251  0.82282436     0.11300
H1028       H  0.62546113  0.65950818  0.79438389     0.11300
C1029       C  0.64489524  0.63651752  0.56999531    -0.14800
C1030       C  0.68194905  0.65479365  0.55172546     0.07300
C1031       C  0.72359739  0.67106314  0.56380712    -0.14800
C1032       C  0.72863355  0.67052061  0.59375287    -0.14800
C1033       C  0.69209677  0.65416377  0.61255132     0.07300
C1034       C  0.64996105  0.63639793  0.60039316    -0.14800
H1035       H  0.61253653  0.62460055  0.56092061     0.11300
H1036       H  0.75255397  0.68569352  0.55002344     0.11300
H1037       H  0.76163538  0.68432962  0.60214645     0.11300
H1038       H  0.62124433  0.62334260  0.61430816     0.11300
C1039       C  0.67773765  0.83376582  0.88861285    -0.14800
C1040       C  0.70283352  0.83175422  0.91175060     0.07300
C1041       C  0.73925396  0.87102975  0.92136357    -0.14800
C1042       C  0.74791757  0.91150515  0.90990182    -0.14800
C1043       C  0.72032004  0.91361901  0.88860883     0.07300
C1044       C  0.68640403  0.87411194  0.87716518    -0.14800
H1045       H  0.64972351  0.80424456  0.88039383     0.11300
H1046       H  0.75944704  0.87077611  0.93903873     0.11300
H1047       H  0.77428230  0.94121445  0.91928553     0.11300
H1048       H  0.66455590  0.87435000  0.86068965     0.11300
C1049       C  0.58617650  0.80821046  0.54510841    -0.14800
C1050       C  0.59715188  0.79957449  0.57286353     0.07300
C1051       C  0.60565638  0.76501420  0.57601015    -0.14800
C1052       C  0.60790537  0.74265842  0.55150225    -0.14800
C1053       C  0.60196551  0.75460364  0.52333974     0.07300
C1054       C  0.58855864  0.78578979  0.52038734    -0.14800
H1055       H  0.58060775  0.83551116  0.54212077     0.11300
H1056       H  0.61515309  0.75844162  0.59704274     0.11300
H1057       H  0.61857941  0.71889946  0.55429008     0.11300
H1058       H  0.58537040  0.79852741  0.99709505     0.11300
C1059       C  0.80382028  0.67029968  0.95524931    -0.14800
C1060       C  0.80000843  0.70611037  0.96481011     0.07300
C1061       C  0.83665557  0.73889128  0.48095483    -0.14800
C1062       C  0.86880635  0.73104138  0.49296444    -0.14800
C1063       C  0.86803789  0.69139800  0.48727956     0.07300
C1064       C  0.83560229  0.66227435  0.96696764    -0.14800
H1065       H  0.77965103  0.64622521  0.94061215     0.11300
H1066       H  0.83510244  0.76738873  0.48805793     0.11300
H1067       H  0.89164332  0.75407303  0.50866323     0.11300
H1068       H  0.83538168  0.63253201  0.96070416     0.11300
C1069       C  0.53864348  0.41867296  0.71323014    -0.14800
C1070       C  0.49998065  0.41847658  0.70544576     0.07300
C1071       C  0.50246015  0.45846707  0.69843831    -0.14800
C1072       C  0.54234615  0.49767571  0.69932231    -0.14800
C1073       C  0.58105976  0.49828099  0.70752712     0.07300
C1074       C  0.57877239  0.45827956  0.71452122    -0.14800
H1075       H  0.53771389  0.38836613  0.71877837     0.11300
H1076       H  0.47340953  0.45952290  0.69208639     0.11300
H1077       H  0.54260498  0.52773414  0.69400780     0.11300
H1078       H  0.60791533  0.45761924  0.72112342     0.11300
C1079       C  0.27136177  0.10563783  0.66972335    -0.14800
C1080       C  0.30906896  0.14464368  0.66103824     0.07300
C1081       C  0.33567293  0.14227845  0.63897159    -0.14800
C1082       C  0.32731490  0.10178969  0.62800477    -0.14800
C1083       C  0.29217337  0.06242588  0.63882738     0.07300
C1084       C  0.26306326  0.06495082  0.65879818    -0.14800
H1085       H  0.24989210  0.10620692  0.68646324     0.11300
H1086       H  0.36465656  0.17158063  0.63138489     0.11300
H1087       H  0.35033389  0.10132704  0.61249205     0.11300
H1088       H  0.23561222  0.03538863  0.66757989     0.11300
C1089       C  0.53640470  0.08960702  0.87789313    -0.14800
C1090       C  0.49628451  0.05016773  0.87521508     0.07300
C1091       C  0.49672036  0.01069830  0.87239943    -0.14800
C1092       C  0.53614760  0.01046818  0.87268232    -0.14800
C1093       C  0.57623889  0.04976367  0.87519464     0.07300
C1094       C  0.57612700  0.08945388  0.87749503    -0.14800
H1095       H  0.53704564  0.12048603  0.88026396     0.11300
H1096       H  0.46641107  0.97969124  0.87063038     0.11300
H1097       H  0.53529791  0.97945562  0.87044290     0.11300
H1098       H  0.60667799  0.12020650  0.87933037     0.11300
C1099       C  0.42748527  0.16928805  0.79606815    -0.14800
C1100       C  0.41465355  0.17710529  0.82351326     0.07300
C1101       C  0.40446122  0.21059979  0.82615765    -0.14800
C1102       C  0.40298533  0.23299043  0.80147906    -0.14800
C1103       C  0.41123714  0.22207040  0.77357682     0.07300
C1104       C  0.42577445  0.19169716  0.77113905    -0.14800
H1105       H  0.43417657  0.14266489  0.79340917     0.11300
H1106       H  0.39343348  0.21646018  0.84689319     0.11300
H1107       H  0.39125980  0.25598372  0.80384655     0.11300
H1108       H  0.43138471  0.18208840  0.74982484     0.11300
C1109       C  0.18693099  0.91177898  0.84361227    -0.13600
C1110       C  0.21638610  0.91372288  0.86504272     0.07300
C1111       C  0.21091761  0.87420569  0.87632930    -0.14800
C1112       C  0.17987390  0.83403586  0.86437796    -0.14800
C1113       C  0.15346662  0.83235485  0.84088227     0.07300
C1114       C  0.15581804  0.87151247  0.83163020    -0.14800
H1115       H  0.19012557  0.94154137  0.83442762     0.11300
H1116       H  0.23277360  0.87437609  0.89295861     0.11300
H1117       H  0.17848272  0.80448013  0.87240920     0.11300
H1118       H  0.13572571  0.87142301  0.81376984     0.11300
C1119       C  0.36086589  0.03166881  0.76056303    -0.14800
C1120       C  0.34170432  0.99822899  0.78151958     0.07300
C1121       C  0.32093163  0.95428994  0.77264645    -0.14800
C1122       C  0.31663214  0.94391583  0.74303197    -0.14800
C1123       C  0.33416316  0.97736390  0.72197790     0.07300
C1124       C  0.35773133  0.02126374  0.73094355    -0.14800
H1125       H  0.37724376  0.06577774  0.76707576     0.11300
H1126       H  0.30583221  0.92805076  0.78852455     0.11300
H1127       H  0.29829427  0.90983444  0.73653713     0.11300
H1128       H  0.37119389  0.04751302  0.71502292     0.11300
C1129       C  0.34388679  0.95672827  0.97792251    -0.14800
C1130       C  0.36690371  0.00193686  0.97179620     0.07300
C1131       C  0.38183427  0.03173308  0.99509420    -0.14800
C1132       C  0.37470641  0.01821094  0.52423560    -0.14800
C1133       C  0.35192323  0.97303526  0.53035708     0.07300
C1134       C  0.33763361  0.94327579  0.50698667    -0.14800
H1135       H  0.33164153  0.93285551  0.96045742     0.11300
H1136       H  0.39955831  0.06672404  0.99112287     0.11300
H1137       H  0.38607592  0.04204943  0.54171300     0.11300
H1138       H  0.32008551  0.90827219  0.51093053     0.11300
C1139       C  0.03287362  0.51918365  0.80141881    -0.14800
C1140       C  0.07148710  0.55907647  0.79587798     0.07300
C1141       C  0.11017436  0.55839980  0.78940103    -0.14800
C1142       C  0.10981693  0.51840034  0.78792338    -0.14800
C1143       C  0.07095144  0.47852747  0.79343094     0.07300
C1144       C  0.03263451  0.47960798  0.80032143    -0.14800
H1145       H  0.00254500  0.51845317  0.80678479     0.11300
H1146       H  0.14041203  0.58862256  0.78504600     0.11300
H1147       H  0.13985578  0.51867013  0.78239197     0.11300
H1148       H  0.00203054  0.44967978  0.80453400     0.11300
C1149       C  0.14877446  0.24866455  0.74467811    -0.14800
C1150       C  0.14817031  0.28728769  0.73803690     0.07300
C1151       C  0.17723191  0.31572696  0.71671638    -0.14800
C1152       C  0.20933736  0.30829847  0.70472181    -0.14800
C1153       C  0.21312572  0.27229875  0.71377931     0.07300
C1154       C  0.18105977  0.24119172  0.73258658    -0.14800
H1155       H  0.12683925  0.22620308  0.76107289     0.11300
H1156       H  0.17723464  0.34548716  0.71083820     0.11300
H1157       H  0.23361173  0.33279117  0.69024754     0.11300
H1158       H  0.18360462  0.21350373  0.74026914     0.11300
C1159       C  0.99899976  0.33872200  0.90184603    -0.14800
C1160       C  0.02526110  0.32294773  0.88983032     0.07300
C1161       C  0.04686283  0.30852884  0.90876648    -0.14800
C1162       C  0.04033222  0.30738258  0.93873940    -0.14800
C1163       C  0.01276033  0.32132207  0.95058431     0.07300
C1164       C  0.99284994  0.33799201  0.93215237    -0.14800
H1165       H  0.98214284  0.35022265  0.88785153     0.11300
H1166       H  0.06779436  0.29664260  0.90045293     0.11300
H1167       H  0.05570756  0.29417447  0.95270061     0.11300
H1168       H  0.97081877  0.34814920  0.94102788     0.11300
C1169       C  0.97502045  0.32607462  0.69145337    -0.14800
C1170       C  0.01994224  0.34697911  0.69832793     0.07300
C1171       C  0.05068092  0.36291311  0.67542639    -0.14800
C1172       C  0.03694851  0.35726035  0.64642876    -0.14800
C1173       C  0.99205846  0.33536917  0.63946115     0.07300
C1174       C  0.96122862  0.32033413  0.66233496    -0.14800
H1175       H  0.95043904  0.31354934  0.70855073     0.11300
H1176       H  0.08552799  0.37943796  0.67983656     0.11300
H1177       H  0.06170294  0.36954368  0.62943559     0.11300
H1178       H  0.92641991  0.30343858  0.65776519     0.11300
C1179       C  0.88693904  0.12960632  0.83399663    -0.14800
C1180       C  0.84823890  0.12893693  0.82560088     0.07300
C1181       C  0.85060573  0.15736686  0.80326977    -0.14800
C1182       C  0.89104604  0.18880918  0.79182305    -0.14800
C1183       C  0.93025086  0.19285869  0.80251460     0.07300
C1184       C  0.92766429  0.16134606  0.82253998    -0.14800
H1185       H  0.88619015  0.10810660  0.85113815     0.11300
H1186       H  0.82135576  0.15729329  0.79597231     0.11300
H1187       H  0.89178983  0.21229115  0.77625927     0.11300
H1188       H  0.95723811  0.16370694  0.83138699     0.11300
C1189       C  0.47160816  0.47748692  0.94822793    -0.14800
C1190       C  0.43277393  0.47632848  0.95698796     0.07300
C1191       C  0.43455018  0.51607117  0.96410371    -0.14800
C1192       C  0.47438352  0.55591862  0.96273125    -0.14800
C1193       C  0.51325378  0.55664046  0.95467294     0.07300
C1194       C  0.51123571  0.51698382  0.94723100    -0.14800
H1195       H  0.47165885  0.44766812  0.94260985     0.11300
H1196       H  0.40528142  0.51632854  0.97106655     0.11300
H1197       H  0.47496091  0.58597839  0.96854696     0.11300
H1198       H  0.54047360  0.51642678  0.94054333     0.11300
C1199       C  0.12467254  0.24798913  0.01004477    -0.14800
C1200       C  0.16393966  0.28717260  0.01577318     0.07300
C1201       C  0.16450455  0.31945638  0.53622383    -0.14800
C1202       C  0.12482012  0.31212366  0.54805332    -0.14800
C1203       C  0.08509638  0.27515238  0.53989495     0.07300
C1204       C  0.08480159  0.24087039  0.02190394    -0.14800
H1205       H  0.12415252  0.22462692  0.99446562     0.11300
H1206       H  0.19407450  0.34983757  0.54143281     0.11300
H1207       H  0.12484093  0.33726048  0.56169128     0.11300
H1208       H  0.05460199  0.21249647  0.01487034     0.11300
C1209       C  0.24783162  0.39651633  0.87660738    -0.14800
C1210       C  0.22621643  0.38902674  0.90362592     0.07300
C1211       C  0.18452288  0.38484771  0.90468133    -0.14800
C1212       C  0.16375518  0.38568165  0.87892001    -0.14800
C1213       C  0.18392826  0.38971065  0.85171250     0.07300
C1214       C  0.22664357  0.39645802  0.85074457    -0.14800
H1215       H  0.27928673  0.39806208  0.87524918     0.11300
H1216       H  0.16669239  0.37749585  0.92513853     0.11300
H1217       H  0.13026783  0.37910565  0.88002433     0.11300
H1218       H  0.24206778  0.39797874  0.82995421     0.11300
C1219       C  0.33615545  0.36267980  0.57718780    -0.14800
C1220       C  0.35222349  0.34825319  0.55420252     0.07300
C1221       C  0.37521733  0.32628037  0.56096808    -0.14800
C1222       C  0.38158964  0.31861917  0.59008666    -0.14800
C1223       C  0.36515456  0.33283667  0.61302786     0.07300
C1224       C  0.34245727  0.35503598  0.60613027    -0.14800
H1225       H  0.31824486  0.37963527  0.57288036     0.11300
H1226       H  0.38780778  0.31448676  0.54377676     0.11300
H1227       H  0.39907581  0.30130370  0.59459972     0.11300
H1228       H  0.32925680  0.36649491  0.62313746     0.11300
C1229       C  0.36407663  0.33404492  0.85114446    -0.14800
C1230       C  0.32296457  0.32327172  0.86301801     0.07300
C1231       C  0.28864203  0.31557808  0.84387104    -0.14800
C1232       C  0.29419953  0.31538123  0.81376998    -0.14800
C1233       C  0.33437194  0.32376829  0.80204712     0.07300
C1234       C  0.36972469  0.33428563  0.82078243    -0.14800
H1235       H  0.39125924  0.34052206  0.86525422     0.11300
H1236       H  0.25678177  0.30804100  0.85211134     0.11300
H1237       H  0.26649113  0.30687426  0.79960027     0.11300
H1238       H  0.40078424  0.34012682  0.81202694     0.11300
C1239       C  0.25656253  0.15961783  0.93167996    -0.14800
C1240       C  0.28528441  0.19071762  0.95193764     0.07300
C1241       C  0.31942846  0.18556985  0.96340363    -0.14800
C1242       C  0.32806552  0.15377718  0.95215707    -0.14800
C1243       C  0.30259814  0.12619589  0.92931401     0.07300
C1244       C  0.26512483  0.12756669  0.92048609    -0.14800
H1245       H  0.23002386  0.16266736  0.92233616     0.11300
H1246       H  0.34186455  0.20858755  0.97928491     0.11300
H1247       H  0.35672257  0.15300970  0.95983953     0.11300
H1248       H  0.24476286  0.10664672  0.90301536     0.11300
loop_ 
_geom_bond_atom_site_label_1 
_geom_bond_atom_site_label_2 
_geom_bond_distance 
_geom_bond_site_symmetry_2 
_ccdc_geom_bond_type 
Fe1           O7   2.052       .  S
Fe1          O14   2.050       .  S
Fe1           O6   2.095       .  S
Fe1         O641   2.086       .  S
Fe1          O12   1.950       .  S
Fe2           O5   2.082       .  S
Fe2          O13   2.072       .  S
Fe2          O18   2.078       .  S
Fe2         O633   2.066       .  S
Fe2          O12   1.956       .  S
Fe3          O21   2.073       .  S
Fe3           O8   2.073       .  S
Fe3          O15   2.083       .  S
Fe3           O4   2.054       .  S
Fe3          O12   1.964       .  S
O4           C11   1.275       .  A
O5           C19   1.275       .  A
O6           C11   1.282       .  A
O7           C10   1.263       .  A
O8           C20   1.267       .  A
O9         Fe626   2.069   1_554  S
O9           C22   1.279       .  A
C10          O15   1.268       .  A
C10         C616   1.490       .  S
C11         C606   1.483       .  S
O13          C16   1.264       .  A
O14          C16   1.262       .  A
C16         C566   1.487       .  S
O17        Fe625   2.077   1_554  S
O17          C22   1.279       .  A
O18          C20   1.269       .  A
C19          O21   1.274       .  A
C19         C576   1.488       .  S
C20         C586   1.469       .  S
C22         C596   1.480       .  S
Fe23         O39   2.082       .  S
Fe23         O29   2.049   1_455  S
Fe23         O36   2.049       .  S
Fe23         O28   2.086       .  S
Fe23         O34   1.956       .  S
Fe24         O27   2.064       .  S
Fe24         O31   2.085       .  S
Fe24         O35   2.068       .  S
Fe24         O40   2.081       .  S
Fe24         O34   1.970       .  S
Fe25         O43   2.068       .  S
Fe25         O30   2.060       .  S
Fe25         O37   2.078       .  S
Fe25         O26   2.052       .  S
Fe25         O34   1.976       .  S
O26          C33   1.273       .  A
O27          C41   1.269       .  A
O28          C33   1.279       .  A
O29          C32   1.263       .  A
O30          C42   1.268       .  A
O31          C44   1.282       .  A
C32          O37   1.266   1_655  A
C32         C559   1.486       .  S
C33         C536   1.480       .  S
O35          C38   1.261       .  A
O36          C38   1.261       .  A
C38         C519   1.487       .  S
O39          C44   1.282       .  A
O40          C42   1.272       .  A
C41          O43   1.269       .  A
C41         C526   1.484       .  S
C42         C589   1.470       .  S
C44         C546   1.488       .  S
Fe45         O61   2.068       .  S
Fe45         O51   2.055       .  S
Fe45         O58   2.054   1_565  S
Fe45         O50   2.081       .  S
Fe45         O56   1.950   1_565  S
Fe46         O49   2.088       .  S
Fe46         O53   2.072       .  S
Fe46         O57   2.073       .  S
Fe46         O62   2.089       .  S
Fe46         O56   1.950       .  S
Fe47         O65   2.074       .  S
Fe47         O52   2.062       .  S
Fe47         O59   2.080   1_545  S
Fe47         O48   2.059       .  S
Fe47         O56   1.956       .  S
O48          C55   1.274       .  A
O49          C63   1.277       .  A
O50          C55   1.276   1_565  A
O51          C54   1.264       .  A
O52          C64   1.265       .  A
O53          C66   1.277       .  A
C54          O59   1.268       .  A
C54         C486   1.488       .  S
C55         C496   1.468   1_545  S
O57          C60   1.268       .  A
O58          C60   1.266       .  A
C60         C466   1.481       .  S
O61          C66   1.274   1_565  A
O62          C64   1.269       .  A
C63          O65   1.276       .  A
C63         C619   1.488       .  S
C64         C476   1.472       .  S
C66         C506   1.482       .  S
Fe67         O83   2.049       .  S
Fe67         O73   2.051       .  S
Fe67         O80   2.042       .  S
Fe67         O72   2.069       .  S
Fe67         O78   1.960       .  S
Fe68         O71   2.067       .  S
Fe68         O75   2.094       .  S
Fe68         O79   2.076       .  S
Fe68         O84   2.096       .  S
Fe68         O78   1.974       .  S
Fe69         O87   2.080       .  S
Fe69         O74   2.048       .  S
Fe69         O81   2.068       .  S
Fe69         O70   2.076       .  S
Fe69         O78   1.966       .  S
O70          C77   1.273       .  A
O71          C85   1.268       .  A
O72          C77   1.273       .  A
O73          C76   1.263       .  A
O74          C86   1.269       .  A
O75          C88   1.282       .  A
C76          O81   1.266       .  A
C76         C529   1.477       .  S
C77         C609   1.465       .  S
O79          C82   1.264       .  A
O80          C82   1.260       .  A
C82         C446   1.482       .  S
O83          C88   1.276       .  A
O84          C86   1.276       .  A
C85          O87   1.270       .  A
C85         C456   1.492       .  S
C86         C479   1.475       .  S
C88         C599   1.480       .  S
Fe89        O105   2.055       .  S
Fe89         O95   2.060       .  S
Fe89        O102   2.051       .  S
Fe89        O718   2.071       .  S
Fe89        O100   1.956       .  S
Fe90         O93   2.060       .  S
Fe90         O97   2.107       .  S
Fe90        O101   2.071       .  S
Fe90        O106   2.104       .  S
Fe90        O100   1.966       .  S
Fe91        O109   2.074       .  S
Fe91        O103   2.075       .  S
Fe91        O720   2.048       .  S
Fe91        O716   2.060       .  S
Fe91        O100   1.968       .  S
O92        Fe715   2.063   1_554  S
O92          C99   1.271       .  A
O93         C107   1.268       .  A
O94        Fe713   2.067   1_554  S
O94          C99   1.271       .  A
O95          C98   1.267       .  A
O96        Fe715   2.047   1_554  S
O96         C732   1.268   1_554  A
O97         C110   1.285       .  A
C98         O103   1.268       .  A
C98         C436   1.484       .  S
C99         C406   1.459       .  S
O101        C104   1.264       .  A
O102        C104   1.261       .  A
C104        C569   1.483       .  S
O105        C110   1.277       .  A
O106        C108   1.277       .  A
C107        O109   1.269       .  A
C107        C416   1.487       .  S
C108        O720   1.269       .  A
C108       C1053   1.478       .  S
C110        C396   1.487       .  S
Fe111       O127   2.059       .  S
Fe111       O117   2.058       .  S
Fe111       O124   2.041   1_455  S
Fe111       O740   2.072   1_554  S
Fe111       O122   1.958   1_455  S
Fe112       O115   2.069       .  S
Fe112       O119   2.101       .  S
Fe112       O123   2.083       .  S
Fe112       O128   2.099       .  S
Fe112       O122   1.973       .  S
Fe113       O131   2.073       .  S
Fe113       O125   2.074   1_655  S
Fe113       O742   2.055       .  S
Fe113       O738   2.064   1_554  S
Fe113       O122   1.969       .  S
O114       Fe737   2.073       .  S
O114        C121   1.274       .  A
O115        C129   1.269       .  A
O116       Fe735   2.070       .  S
O116        C121   1.273   1_455  A
O117        C120   1.265       .  A
O118       Fe737   2.055       .  S
O118        C754   1.270       .  A
O119        C132   1.284       .  A
C120        O125   1.268       .  A
C120        C579   1.483       .  S
C121        C539   1.465   1_655  S
O123        C126   1.265       .  A
O124        C126   1.259       .  A
C126        C366   1.485       .  S
O127        C132   1.278   1_455  A
O128        C130   1.277       .  A
C129        O131   1.269       .  A
C129        C389   1.491       .  S
C130        O742   1.270       .  A
C130       C1000   1.478   1_554  S
C132        C549   1.487       .  S
Fe133       O149   2.068       .  S
Fe133       O139   2.051       .  S
Fe133       O146   2.055   1_565  S
Fe133       O138   2.080       .  S
Fe133       O144   1.959   1_565  S
Fe134       O137   2.086       .  S
Fe134       O141   2.083       .  S
Fe134       O145   2.069       .  S
Fe134       O150   2.092       .  S
Fe134       O144   1.956       .  S
Fe135       O153   2.069       .  S
Fe135       O140   2.059       .  S
Fe135       O147   2.069   1_545  S
Fe135       O136   2.046       .  S
Fe135       O144   1.963       .  S
O136        C143   1.272       .  A
O137        C151   1.276       .  A
O138        C143   1.276   1_565  A
O139        C142   1.263       .  A
O140        C152   1.265       .  A
O141        C154   1.279       .  A
C142        O147   1.266       .  A
C142        C419   1.484       .  S
C143        C356   1.462   1_545  S
O145        C148   1.265       .  A
O146        C148   1.265       .  A
C148        C469   1.480       .  S
O149        C154   1.275   1_565  A
O150        C152   1.271       .  A
C151        O153   1.273       .  A
C151        C556   1.489       .  S
C152        C379   1.473       .  S
C154        C346   1.485       .  S
Fe155       O171   2.068       .  S
Fe155       O161   2.051   1_565  S
Fe155       O168   2.053       .  S
Fe155       O160   2.080       .  S
Fe155       O166   1.958       .  S
Fe156       O159   2.088       .  S
Fe156       O163   2.077       .  S
Fe156       O167   2.077       .  S
Fe156       O172   2.083       .  S
Fe156       O166   1.961       .  S
Fe157       O175   2.071       .  S
Fe157       O162   2.067       .  S
Fe157       O169   2.084       .  S
Fe157       O158   2.048       .  S
Fe157       O166   1.964       .  S
O158        C165   1.271       .  A
O159        C173   1.277       .  A
O160        C165   1.276       .  A
O161        C164   1.263       .  A
O162        C174   1.267       .  A
O163        C176   1.277       .  A
C164        O169   1.269   1_545  A
C164        C386   1.490       .  S
C165        C359   1.463       .  S
O167        C170   1.268       .  A
O168        C170   1.265       .  A
C170        C329   1.483       .  S
O171        C176   1.274       .  A
O172        C174   1.269       .  A
C173        O175   1.274       .  A
C173        C336   1.489       .  S
C174        C426   1.472       .  S
C176        C349   1.485       .  S
Fe177       O193   2.059       .  S
Fe177       O183   2.059   1_455  S
Fe177       O190   2.045       .  S
Fe177       O182   2.068       .  S
Fe177       O188   1.954       .  S
Fe178       O181   2.067       .  S
Fe178       O185   2.088       .  S
Fe178       O189   2.079       .  S
Fe178       O194   2.085       .  S
Fe178       O188   1.976       .  S
Fe179       O197   2.077       .  S
Fe179       O184   2.043       .  S
Fe179       O191   2.075       .  S
Fe179       O180   2.062       .  S
Fe179       O188   1.973       .  S
O180        C187   1.270       .  A
O181        C195   1.269       .  A
O182        C187   1.271       .  A
O183        C186   1.266       .  A
O184        C196   1.268       .  A
O185        C198   1.280       .  A
C186        O191   1.269   1_655  A
C186        C316   1.484       .  S
C187        C306   1.460       .  S
O189        C192   1.265       .  A
O190        C192   1.261       .  A
C192        C516   1.487       .  S
O193        C198   1.277       .  A
O194        C196   1.273       .  A
C195        O197   1.270       .  A
C195        C489   1.491       .  S
C196        C286   1.466       .  S
C198        C296   1.482       .  S
Fe199       O215   2.070       .  S
Fe199       O205   2.056   1_565  S
Fe199       O212   2.052       .  S
Fe199       O204   2.084       .  S
Fe199       O210   1.955       .  S
Fe200       O203   2.089       .  S
Fe200       O207   2.064       .  S
Fe200       O211   2.079       .  S
Fe200       O216   2.071       .  S
Fe200       O210   1.961       .  S
Fe201       O219   2.077       .  S
Fe201       O206   2.064       .  S
Fe201       O213   2.086       .  S
Fe201       O202   2.054       .  S
Fe201       O210   1.961       .  S
O202        C209   1.273       .  A
O203        C217   1.277       .  A
O204        C209   1.277       .  A
O205        C208   1.264       .  A
O206        C218   1.266       .  A
O207        C220   1.275       .  A
C208        O213   1.269   1_545  A
C208        C459   1.492       .  S
C209        C499   1.469       .  S
O211        C214   1.268       .  A
O212        C214   1.265       .  A
C214        C326   1.484       .  S
O215        C220   1.275       .  A
O216        C218   1.266       .  A
C217        O219   1.276       .  A
C217        C276   1.491       .  S
C218        C289   1.463       .  S
C220        C509   1.479       .  S
Fe221       O237   2.088       .  S
Fe221       O227   2.052       .  S
Fe221       O234   2.050       .  S
Fe221       O226   2.098       .  S
Fe221       O232   1.949       .  S
Fe222       O225   2.093       .  S
Fe222       O229   2.069       .  S
Fe222       O233   2.075       .  S
Fe222       O238   2.078       .  S
Fe222       O232   1.952       .  S
Fe223       O241   2.062       .  S
Fe223       O228   2.076       .  S
Fe223       O235   2.081       .  S
Fe223       O224   2.038       .  S
Fe223       O232   1.965       .  S
O224        C231   1.272       .  A
O225        C239   1.278       .  A
O226        C231   1.282       .  A
O227        C230   1.263       .  A
O228        C240   1.266       .  A
O229        C242   1.278       .  A
C230        O235   1.267       .  A
C230        C339   1.490       .  S
C231        C409   1.479       .  S
O233        C236   1.265       .  A
O234        C236   1.263       .  A
C236        C449   1.487       .  S
O237        C242   1.280       .  A
O238        C240   1.268       .  A
C239        O241   1.272       .  A
C239        C319   1.487       .  S
C240        C266   1.471       .  S
C242        C399   1.486       .  S
Fe243       O249   2.062       .  S
Fe243       O256   2.061   1_455  S
Fe243       O248   2.097       .  S
Fe243       O883   2.089   1_554  S
Fe243       O254   1.947   1_455  S
Fe244       O247   2.090       .  S
Fe244       O255   2.069       .  S
Fe244       O260   2.080       .  S
Fe244       O875   2.062   1_554  S
Fe244       O254   1.950       .  S
Fe245       O263   2.064       .  S
Fe245       O250   2.072       .  S
Fe245       O257   2.078   1_655  S
Fe245       O246   2.037       .  S
Fe245       O254   1.959       .  S
O246        C253   1.272       .  A
O247        C261   1.277       .  A
O248        C253   1.281   1_455  A
O249        C252   1.266       .  A
O250        C262   1.266       .  A
O251       Fe868   2.062       .  S
O251        C264   1.278       .  A
C252        O257   1.268       .  A
C252        C279   1.491       .  S
C253        C309   1.479       .  S
O255        C258   1.264       .  A
O256        C258   1.265       .  A
C258        C369   1.487       .  S
O259       Fe867   2.087       .  S
O259        C264   1.281   1_455  A
O260        C262   1.268       .  A
C261        O263   1.272       .  A
C261        C439   1.486   1_554  S
C262        C269   1.469       .  S
C264        C299   1.483       .  S
C265        C266   1.402       .  A
C265        C270   1.400       .  A
C265        H271   1.083       .  S
C266        C267   1.405       .  A
C267        C268   1.401       .  A
C267        H272   1.084       .  S
C268        C269   1.402       .  A
C268        H273   1.083       .  S
C269        C270   1.405       .  A
C270        H274   1.084       .  S
C275        C276   1.407       .  A
C275        C280   1.406       .  A
C275        H281   1.083       .  S
C276        C277   1.407       .  A
C277        C278   1.399       .  A
C277        H282   1.083       .  S
C278        C279   1.406       .  A
C278        H283   1.083       .  S
C279        C280   1.410       .  A
C280        H284   1.083       .  S
C285        C286   1.400       .  A
C285        C290   1.401       .  A
C285        H291   1.083       .  S
C286        C287   1.405       .  A
C287        C288   1.394       .  A
C287        H292   1.084       .  S
C288        C289   1.399       .  A
C288        H293   1.084       .  S
C289        C290   1.406       .  A
C290        H294   1.083       .  S
C295        C296   1.406   1_655  A
C295        C300   1.394       .  A
C295        H301   1.083       .  S
C296        C297   1.407       .  A
C297        C298   1.400       .  A
C297        H302   1.083       .  S
C298        C299   1.407   1_455  A
C298        H303   1.083       .  S
C299        C300   1.405       .  A
C300        H304   1.083       .  S
C305        C306   1.403       .  A
C305        C310   1.403       .  A
C305        H311   1.083       .  S
C306        C307   1.397   1_455  A
C307        C308   1.388       .  A
C307        H312   1.084       .  S
C308        C309   1.408       .  A
C308        H313   1.083       .  S
C309        C310   1.407   1_655  A
C310        H314   1.083       .  S
C315        C316   1.405       .  A
C315        C320   1.395       .  A
C315        H321   1.084       .  S
C316        C317   1.408       .  A
C317        C318   1.407       .  A
C317        H322   1.083       .  S
C318        C319   1.409       .  A
C318        H323   1.083       .  S
C319        C320   1.404       .  A
C320        H324   1.083       .  S
C325        C326   1.405       .  A
C325        C330   1.393       .  A
C325        H331   1.083       .  S
C326        C327   1.408       .  A
C327        C328   1.406       .  A
C327        H332   1.083       .  S
C328        C329   1.407       .  A
C328        H333   1.083       .  S
C329        C330   1.404       .  A
C330        H334   1.083       .  S
C335        C336   1.406       .  A
C335        C340   1.397       .  A
C335        H341   1.083       .  S
C336        C337   1.407       .  A
C337        C338   1.405       .  A
C337        H342   1.083       .  S
C338        C339   1.409       .  A
C338        H343   1.083       .  S
C339        C340   1.407       .  A
C340        H344   1.083       .  S
C345        C346   1.409   1_565  A
C345        C350   1.399       .  A
C345        H351   1.083       .  S
C346        C347   1.404       .  A
C347        C348   1.398       .  A
C347        H352   1.083       .  S
C348        C349   1.409   1_545  A
C348        H353   1.083       .  S
C349        C350   1.405       .  A
C350        H354   1.083       .  S
C355        C356   1.404   1_545  A
C355        C984   1.394       .  A
C355        H361   1.083       .  S
C356        C357   1.401       .  A
C357        C982   1.394       .  A
C357        H362   1.083       .  S
C358        C359   1.403       .  A
C358        C981   1.393   1_554  A
C358        H363   1.083       .  S
C359        C360   1.401   1_565  A
C360        C979   1.395   1_554  A
C360        H364   1.083       .  S
C365        C366   1.407       .  A
C365        C370   1.393       .  A
C365        H371   1.083   1_655  S
C366        C367   1.405       .  A
C367        C368   1.407       .  A
C367        H372   1.083       .  S
C368        C369   1.411       .  A
C368        H373   1.083       .  S
C369        C370   1.404       .  A
C370        H374   1.083   1_655  S
C375        C376   1.404       .  A
C375        C380   1.408       .  A
C375       H1005   1.083       .  S
C376        C754   1.477       .  S
C376        C377   1.404       .  A
C377        C378   1.396       .  A
C377        H382   1.084       .  S
C378        C379   1.400       .  A
C378        H383   1.084       .  S
C379        C380   1.409       .  A
C380        H384   1.083       .  S
H381        C999   1.083   1_554  S
C385        C386   1.408       .  A
C385        C390   1.398       .  A
C385        H391   1.083       .  S
C386        C387   1.408       .  A
C387        C388   1.404       .  A
C387        H392   1.083       .  S
C388        C389   1.408       .  A
C388        H393   1.083       .  S
C389        C390   1.406       .  A
C390        H394   1.083       .  S
C395        C396   1.406       .  A
C395        C400   1.402       .  A
C395        H401   1.083       .  S
C396        C397   1.408       .  A
C397        C398   1.397       .  A
C397        H402   1.083       .  S
C398        C399   1.406       .  A
C398        H403   1.083       .  S
C399        C400   1.408       .  A
C400        H404   1.083       .  S
C405        C406   1.402       .  A
C405        C410   1.402       .  A
C405        H411   1.083       .  S
C406        C407   1.397       .  A
C407        C408   1.388       .  A
C407        H412   1.084       .  S
C408        C409   1.408       .  A
C408        H413   1.083       .  S
C409        C410   1.407       .  A
C410        H414   1.083       .  S
C415        C416   1.407       .  A
C415        C420   1.397       .  A
C415        H421   1.083       .  S
C416        C417   1.407       .  A
C417        C418   1.402       .  A
C417        H422   1.083       .  S
C418        C419   1.408       .  A
C418        H423   1.083       .  S
C419        C420   1.406       .  A
C420        H424   1.083       .  S
C425        C426   1.407       .  A
C425        C430   1.405       .  A
C425        H431   1.083       .  S
C426        C427   1.400       .  A
C427        C428   1.397       .  A
C427        H432   1.084       .  S
C428        C429   1.406       .  A
C428        H433   1.084       .  S
C429        C732   1.475   1_554  S
C429        C430   1.403       .  A
C430       H1058   1.083   1_554  S
H434       C1054   1.083       .  S
C435        C436   1.405       .  A
C435        C440   1.394       .  A
C435        H441   1.084       .  S
C436       C1061   1.408       .  A
C437        C438   1.406       .  A
C437       C1060   1.407       .  A
C437        H442   1.083       .  S
C438        C439   1.408       .  A
C438        H443   1.083   1_556  S
C439       C1064   1.405       .  A
C440       C1063   1.405       .  A
C440        H444   1.083       .  S
C445        C446   1.405       .  A
C445        C450   1.405       .  A
C445        H451   1.083       .  S
C446        C447   1.406       .  A
C447        C448   1.393       .  A
C447        H452   1.084       .  S
C448        C449   1.406       .  A
C448        H453   1.083       .  S
C449        C450   1.409       .  A
C450        H454   1.083       .  S
C455        C456   1.407       .  A
C455        C460   1.404       .  A
C455        H461   1.083       .  S
C456        C457   1.408       .  A
C457        C458   1.401       .  A
C457        H462   1.083       .  S
C458        C459   1.408       .  A
C458        H463   1.083       .  S
C459        C460   1.408       .  A
C460        H464   1.083       .  S
C465        C466   1.407       .  A
C465        C470   1.404       .  A
C465        H471   1.083       .  S
C466        C467   1.405       .  A
C467        C468   1.393       .  A
C467        H472   1.083   1_545  S
C468        C469   1.404       .  A
C468        H473   1.083   1_545  S
C469        C470   1.407       .  A
C470        H474   1.083       .  S
C475        C476   1.408       .  A
C475        C480   1.407       .  A
C475        H481   1.083       .  S
C476        C477   1.401       .  A
C477        C478   1.395       .  A
C477        H482   1.084       .  S
C478        C479   1.405       .  A
C478        H483   1.084       .  S
C479        C480   1.404       .  A
C480        H484   1.083       .  S
C485        C486   1.408       .  A
C485        C490   1.403       .  A
C485        H491   1.083       .  S
C486        C487   1.407       .  A
C487        C488   1.399       .  A
C487        H492   1.083       .  S
C488        C489   1.408       .  A
C488        H493   1.083       .  S
C489        C490   1.407       .  A
C490        H494   1.083       .  S
C495        C496   1.404   1_545  A
C495        C500   1.397       .  A
C495        H501   1.084       .  S
C496        C497   1.403       .  A
C497        C498   1.395       .  A
C497        H502   1.083       .  S
C498        C499   1.404       .  A
C498        H503   1.083       .  S
C499        C500   1.404   1_565  A
C500        H504   1.083       .  S
C505        C506   1.408   1_565  A
C505       C1134   1.398       .  A
C505        H511   1.083       .  S
C506        C507   1.404       .  A
C507       C1132   1.397       .  A
C507        H512   1.083       .  S
C508        C509   1.406   1_545  A
C508       C1131   1.395   1_554  A
C508        H513   1.083       .  S
C509        C510   1.405       .  A
C510       C1129   1.397   1_554  A
C510        H514   1.083       .  S
C515        C516   1.406       .  A
C515        C520   1.392       .  A
C515        H521   1.083       .  S
C516        C517   1.408       .  A
C517        C518   1.408       .  A
C517        H522   1.083       .  S
C518        C519   1.409       .  A
C518        H523   1.083       .  S
C519        C520   1.404       .  A
C520        H524   1.083       .  S
C525        C526   1.406       .  A
C525        C530   1.401       .  A
C525        H531   1.083       .  S
C526        C527   1.407       .  A
C527        C528   1.395       .  A
C527        H532   1.083       .  S
C528        C529   1.405       .  A
C528        H533   1.084       .  S
C529        C530   1.405       .  A
C530        H534   1.083       .  S
C535        C536   1.406   1_655  A
C535        C540   1.403       .  A
C535        H541   1.083       .  S
C536        C537   1.409       .  A
C537        C538   1.391       .  A
C537        H542   1.083       .  S
C538        C539   1.398       .  A
C538        H543   1.084       .  S
C539        C540   1.404   1_455  A
C540        H544   1.083       .  S
C545        C546   1.408   1_655  A
C545        C550   1.402       .  A
C545        H551   1.083       .  S
C546        C547   1.406       .  A
C547        C548   1.398       .  A
C547        H552   1.083       .  S
C548        C549   1.408   1_455  A
C548        H553   1.083       .  S
C549        C550   1.406       .  A
C550        H554   1.083       .  S
C555        C556   1.408       .  A
C555        C560   1.407       .  A
C555        H561   1.083       .  S
C556        C557   1.406       .  A
C557        C558   1.396       .  A
C557        H562   1.083       .  S
C558        C559   1.405       .  A
C558        H563   1.083       .  S
C559        C560   1.408       .  A
C560        H564   1.083       .  S
C565        C566   1.406       .  A
C565        C570   1.394       .  A
C565        H571   1.083       .  S
C566        C567   1.409       .  A
C567        C568   1.405       .  A
C567        H572   1.083       .  S
C568        C569   1.406       .  A
C568        H573   1.083       .  S
C569        C570   1.405       .  A
C570        H574   1.083       .  S
C575        C576   1.407       .  A
C575        C580   1.405       .  A
C575        H581   1.083       .  S
C576       C1201   1.407       .  A
C577        C578   1.397       .  A
C577       C1200   1.407       .  A
C577        H582   1.083       .  S
C578        C579   1.405       .  A
C578        H583   1.084       .  S
C579       C1204   1.406       .  A
C580       C1203   1.406       .  A
C580        H584   1.083       .  S
C585        C586   1.405       .  A
C585        C590   1.401       .  A
C585        H591   1.084       .  S
C586        C587   1.402       .  A
C587        C588   1.399       .  A
C587        H592   1.083       .  S
C588        C589   1.406       .  A
C588        H593   1.084       .  S
C589        C590   1.401       .  A
C590        H594   1.083       .  S
C595        C596   1.404       .  A
C595        C600   1.393       .  A
C595        H601   1.083       .  S
C596        C597   1.408       .  A
C597        C598   1.399       .  A
C597        H602   1.083       .  S
C598        C599   1.405       .  A
C598        H603   1.083       .  S
C599        C600   1.407       .  A
C600        H604   1.083       .  S
C605        C606   1.407       .  A
C605        C610   1.402       .  A
C605        H611   1.083       .  S
C606        C607   1.409       .  A
C607        C608   1.394       .  A
C607        H612   1.083       .  S
C608        C609   1.399       .  A
C608        H613   1.084       .  S
C609        C610   1.402       .  A
C610        H614   1.083       .  S
C615        C616   1.409       .  A
C615        C620   1.405       .  A
C615        H621   1.083       .  S
C616        C617   1.407       .  A
C617        C618   1.398       .  A
C617        H622   1.083       .  S
C618        C619   1.407       .  A
C618        H623   1.083       .  S
C619        C620   1.406       .  A
C620        H624   1.083       .  S
Fe625       O631   2.051       .  S
Fe625       O638   2.051       .  S
Fe625       O630   2.092       .  S
Fe625       O636   1.956       .  S
Fe626       O629   2.081       .  S
Fe626       O637   2.068       .  S
Fe626       O642   2.079       .  S
Fe626       O636   1.957       .  S
Fe627       O645   2.073       .  S
Fe627       O632   2.070       .  S
Fe627       O639   2.078       .  S
Fe627       O628   2.057       .  S
Fe627       O636   1.966       .  S
O628        C635   1.276       .  A
O629        C643   1.274       .  A
O630        C635   1.281       .  A
O631        C634   1.262       .  A
O632        C644   1.266       .  A
O633        C646   1.279       .  A
C634        O639   1.266       .  A
C634       C1240   1.487       .  S
C635       C1230   1.485       .  S
O637        C640   1.263       .  A
O638        C640   1.262       .  A
C640       C1190   1.487       .  S
O641        C646   1.281       .  A
O642        C644   1.269       .  A
C643        O645   1.273       .  A
C643       C1200   1.488   1_556  S
C644       C1210   1.470       .  S
C646       C1220   1.484       .  S
Fe647       O663   2.084       .  S
Fe647       O653   2.049   1_455  S
Fe647       O660   2.049       .  S
Fe647       O652   2.090       .  S
Fe647       O658   1.950       .  S
Fe648       O651   2.075       .  S
Fe648       O655   2.075       .  S
Fe648       O659   2.065       .  S
Fe648       O664   2.079       .  S
Fe648       O658   1.959       .  S
Fe649       O667   2.061       .  S
Fe649       O654   2.069       .  S
Fe649       O661   2.074       .  S
Fe649       O650   2.046       .  S
Fe649       O658   1.968       .  S
O650        C657   1.274       .  A
O651        C665   1.272       .  A
O652        C657   1.281       .  A
O653        C656   1.263       .  A
O654        C666   1.267       .  A
O655        C668   1.282       .  A
C656        O661   1.265   1_655  A
C656       C1183   1.486       .  S
C657       C1160   1.480       .  S
O659        C662   1.261       .  A
O660        C662   1.261       .  A
C662       C1143   1.486       .  S
O663        C668   1.282       .  A
O664        C666   1.270       .  A
C665        O667   1.269       .  A
C665       C1150   1.480       .  S
C666       C1213   1.469       .  S
C668       C1170   1.485       .  S
Fe669       O685   2.064       .  S
Fe669       O675   2.053       .  S
Fe669       O682   2.053   1_565  S
Fe669       O674   2.078       .  S
Fe669       O680   1.949   1_565  S
Fe670       O673   2.089       .  S
Fe670       O677   2.069       .  S
Fe670       O681   2.072       .  S
Fe670       O686   2.090       .  S
Fe670       O680   1.948       .  S
Fe671       O689   2.069       .  S
Fe671       O676   2.066       .  S
Fe671       O683   2.076   1_545  S
Fe671       O672   2.056       .  S
Fe671       O680   1.954       .  S
O672        C679   1.274       .  A
O673        C687   1.278       .  A
O674        C679   1.276   1_565  A
O675        C678   1.263       .  A
O676        C688   1.265       .  A
O677        C690   1.276       .  A
C678        O683   1.267       .  A
C678       C1110   1.486       .  S
C679       C1120   1.465   1_545  S
O681        C684   1.267       .  A
O682        C684   1.266       .  A
C684       C1090   1.481       .  S
O685        C690   1.273   1_565  A
O686        C688   1.270       .  A
C687        O689   1.275       .  A
C687       C1243   1.486       .  S
C688       C1100   1.474       .  S
C690       C1130   1.479       .  S
Fe691       O707   2.054       .  S
Fe691       O697   2.053       .  S
Fe691       O704   2.046       .  S
Fe691       O696   2.073       .  S
Fe691       O702   1.958       .  S
Fe692       O695   2.066       .  S
Fe692       O699   2.104       .  S
Fe692       O703   2.077       .  S
Fe692       O708   2.102       .  S
Fe692       O702   1.972       .  S
Fe693       O711   2.080       .  S
Fe693       O698   2.044       .  S
Fe693       O705   2.066       .  S
Fe693       O694   2.075       .  S
Fe693       O702   1.967       .  S
O694        C701   1.274       .  A
O695        C709   1.268       .  A
O696        C701   1.274       .  A
O697        C700   1.264       .  A
O698        C710   1.268       .  A
O699        C712   1.284       .  A
C700        O705   1.266       .  A
C700       C1153   1.476       .  S
C701       C1233   1.467       .  S
O703        C706   1.264       .  A
O704        C706   1.260       .  A
C706       C1070   1.484       .  S
O707        C712   1.277       .  A
O708        C710   1.277       .  A
C709        O711   1.270       .  A
C709       C1080   1.493       .  S
C710       C1103   1.477       .  S
C712       C1223   1.486       .  S
Fe713       O729   2.054       .  S
Fe713       O719   2.055       .  S
Fe713       O726   2.047       .  S
Fe713       O724   1.959       .  S
Fe714       O717   2.068       .  S
Fe714       O721   2.100       .  S
Fe714       O725   2.077       .  S
Fe714       O730   2.100       .  S
Fe714       O724   1.970       .  S
Fe715       O733   2.075       .  S
Fe715       O727   2.073       .  S
Fe715       O724   1.970       .  S
O716        C723   1.271       .  A
O717        C731   1.269       .  A
O718        C723   1.272       .  A
O719        C722   1.265       .  A
O721        C734   1.283       .  A
C722        O727   1.268       .  A
C722       C1060   1.481       .  S
C723       C1030   1.462       .  S
O725        C728   1.265       .  A
O726        C728   1.260       .  A
C728       C1193   1.483       .  S
O729        C734   1.276       .  A
O730        C732   1.277       .  A
C731        O733   1.269       .  A
C731       C1040   1.491       .  S
C734       C1020   1.485       .  S
Fe735       O751   2.054       .  S
Fe735       O741   2.056       .  S
Fe735       O748   2.040   1_455  S
Fe735       O746   1.955   1_455  S
Fe736       O739   2.067       .  S
Fe736       O743   2.100       .  S
Fe736       O747   2.084       .  S
Fe736       O752   2.097       .  S
Fe736       O746   1.972       .  S
Fe737       O755   2.077       .  S
Fe737       O749   2.074   1_655  S
Fe737       O746   1.967       .  S
O738        C745   1.271       .  A
O739        C753   1.269       .  A
O740        C745   1.273   1_455  A
O741        C744   1.264       .  A
O743        C756   1.284       .  A
C744        O749   1.267       .  A
C744       C1203   1.482       .  S
C745       C1163   1.463   1_655  S
O747        C750   1.265       .  A
O748        C750   1.259       .  A
C750        C990   1.484       .  S
O751        C756   1.277   1_455  A
O752        C754   1.276       .  A
C753        O755   1.270       .  A
C753       C1013   1.491       .  S
C756       C1173   1.485       .  S
Fe757       O773   2.068       .  S
Fe757       O763   2.053       .  S
Fe757       O770   2.053   1_565  S
Fe757       O762   2.083       .  S
Fe757       O768   1.949   1_565  S
Fe758       O761   2.088       .  S
Fe758       O765   2.073       .  S
Fe758       O769   2.069       .  S
Fe758       O774   2.089       .  S
Fe758       O768   1.949       .  S
Fe759       O777   2.068       .  S
Fe759       O764   2.066       .  S
Fe759       O771   2.081   1_545  S
Fe759       O760   2.046       .  S
Fe759       O768   1.955       .  S
O760        C767   1.272       .  A
O761        C775   1.277       .  A
O762        C767   1.278   1_565  A
O763        C766   1.263       .  A
O764        C776   1.266       .  A
O765        C778   1.277       .  A
C766        O771   1.268       .  A
C766       C1043   1.489       .  S
C767        C980   1.464   1_545  S
O769        C772   1.266       .  A
O770        C772   1.265       .  A
C772       C1093   1.477       .  S
O773        C778   1.275   1_565  A
O774        C776   1.269       .  A
C775        O777   1.274       .  A
C775       C1180   1.486       .  S
C776       C1003   1.473       .  S
C778        C970   1.480       .  S
Fe779       O795   2.067       .  S
Fe779       O785   2.051   1_565  S
Fe779       O792   2.052       .  S
Fe779       O784   2.080       .  S
Fe779       O790   1.954       .  S
Fe780       O783   2.086       .  S
Fe780       O787   2.071       .  S
Fe780       O791   2.077       .  S
Fe780       O796   2.085       .  S
Fe780       O790   1.954       .  S
Fe781       O799   2.073       .  S
Fe781       O786   2.068       .  S
Fe781       O793   2.086       .  S
Fe781       O782   2.048       .  S
Fe781       O790   1.959       .  S
O782        C789   1.271       .  A
O783        C797   1.276       .  A
O784        C789   1.276       .  A
O785        C788   1.263       .  A
O786        C798   1.267       .  A
O787        C800   1.276       .  A
C788        O793   1.270   1_545  A
C788       C1010   1.490       .  S
C789        C983   1.463       .  S
O791        C794   1.268       .  A
O792        C794   1.265       .  A
C794        C953   1.482       .  S
O795        C800   1.274       .  A
O796        C798   1.270       .  A
C797        O799   1.275       .  A
C797        C960   1.489       .  S
C798       C1050   1.473       .  S
C800        C973   1.481       .  S
Fe801       O817   2.057       .  S
Fe801       O807   2.055   1_455  S
Fe801       O814   2.042       .  S
Fe801       O806   2.070       .  S
Fe801       O812   1.954       .  S
Fe802       O805   2.064       .  S
Fe802       O809   2.094       .  S
Fe802       O813   2.077       .  S
Fe802       O818   2.089       .  S
Fe802       O812   1.975       .  S
Fe803       O821   2.072       .  S
Fe803       O808   2.045       .  S
Fe803       O815   2.074       .  S
Fe803       O804   2.062       .  S
Fe803       O812   1.971       .  S
O804        C811   1.271       .  A
O805        C819   1.268       .  A
O806        C811   1.272       .  A
O807        C810   1.265       .  A
O808        C820   1.268       .  A
O809        C822   1.282       .  A
C810        O815   1.268   1_655  A
C810        C940   1.484       .  S
C811        C930   1.460       .  S
O813        C816   1.264       .  A
O814        C816   1.260       .  A
C816       C1140   1.483       .  S
O817        C822   1.277       .  A
O818        C820   1.274       .  A
C819        O821   1.269       .  A
C819       C1113   1.488       .  S
C820        C910   1.469       .  S
C822        C920   1.484       .  S
Fe823       O839   2.074       .  S
Fe823       O829   2.052   1_565  S
Fe823       O836   2.054       .  S
Fe823       O828   2.087       .  S
Fe823       O834   1.947       .  S
Fe824       O827   2.086       .  S
Fe824       O831   2.067       .  S
Fe824       O835   2.075       .  S
Fe824       O840   2.076       .  S
Fe824       O834   1.953       .  S
Fe825       O843   2.075       .  S
Fe825       O830   2.067       .  S
Fe825       O837   2.088       .  S
Fe825       O826   2.051       .  S
Fe825       O834   1.959       .  S
O826        C833   1.272       .  A
O827        C841   1.277       .  A
O828        C833   1.278       .  A
O829        C832   1.264       .  A
O830        C842   1.267       .  A
O831        C844   1.275       .  A
C832        O837   1.269   1_545  A
C832       C1083   1.491       .  S
C833       C1123   1.468       .  S
O835        C838   1.267       .  A
O836        C838   1.266       .  A
C838        C950   1.482       .  S
O839        C844   1.276       .  A
O840        C842   1.267       .  A
C841        O843   1.275       .  A
C841        C900   1.488       .  S
C842        C913   1.466       .  S
C844       C1133   1.482       .  S
Fe845       O861   2.091       .  S
Fe845       O851   2.055       .  S
Fe845       O858   2.051       .  S
Fe845       O850   2.104       .  S
Fe845       O856   1.948       .  S
Fe846       O849   2.090       .  S
Fe846       O853   2.064       .  S
Fe846       O857   2.078       .  S
Fe846       O862   2.080       .  S
Fe846       O856   1.953       .  S
Fe847       O865   2.063       .  S
Fe847       O852   2.076       .  S
Fe847       O859   2.082       .  S
Fe847       O848   2.031       .  S
Fe847       O856   1.962       .  S
O848        C855   1.271       .  A
O849        C863   1.277       .  A
O850        C855   1.282       .  A
O851        C854   1.264       .  A
O852        C864   1.267       .  A
O853        C866   1.278       .  A
C854        O859   1.268       .  A
C854        C963   1.491       .  S
C855       C1033   1.480       .  S
O857        C860   1.266       .  A
O858        C860   1.263       .  A
C860       C1073   1.488       .  S
O861        C866   1.282       .  A
O862        C864   1.269       .  A
C863        O865   1.272       .  A
C863        C943   1.486       .  S
C864        C890   1.471       .  S
C866       C1023   1.485       .  S
Fe867       O873   2.064       .  S
Fe867       O880   2.063   1_455  S
Fe867       O872   2.092       .  S
Fe867       O878   1.953   1_455  S
Fe868       O871   2.086       .  S
Fe868       O879   2.065       .  S
Fe868       O884   2.078       .  S
Fe868       O878   1.953       .  S
Fe869       O887   2.068       .  S
Fe869       O874   2.072       .  S
Fe869       O881   2.072   1_655  S
Fe869       O870   2.044       .  S
Fe869       O878   1.961       .  S
O870        C877   1.273       .  A
O871        C885   1.275       .  A
O872        C877   1.280   1_455  A
O873        C876   1.266       .  A
O874        C886   1.267       .  A
O875        C888   1.278       .  A
C876        O881   1.266       .  A
C876        C903   1.490       .  S
C877        C933   1.480       .  S
O879        C882   1.263       .  A
O880        C882   1.265       .  A
C882        C993   1.489       .  S
O883        C888   1.281   1_455  A
O884        C886   1.268       .  A
C885        O887   1.272       .  A
C885       C1063   1.488       .  S
C886        C893   1.470       .  S
C888        C923   1.484       .  S
C889        C890   1.403       .  A
C889        C894   1.404       .  A
C889        H895   1.083       .  S
C890        C891   1.403       .  A
C891        C892   1.397       .  A
C891        H896   1.083       .  S
C892        C893   1.401       .  A
C892        H897   1.083       .  S
C893        C894   1.406       .  A
C894        H898   1.084       .  S
C899        C900   1.406       .  A
C899        C904   1.406       .  A
C899        H905   1.083       .  S
C900        C901   1.407       .  A
C901        C902   1.397       .  A
C901        H906   1.083       .  S
C902        C903   1.405       .  A
C902        H907   1.083       .  S
C903        C904   1.411       .  A
C904        H908   1.083       .  S
C909        C910   1.402       .  A
C909        C914   1.404       .  A
C909        H915   1.083       .  S
C910        C911   1.405       .  A
C911        C912   1.394       .  A
C911        H916   1.084       .  S
C912        C913   1.399       .  A
C912        H917   1.084       .  S
C913        C914   1.407       .  A
C914        H918   1.083       .  S
C919        C920   1.406   1_655  A
C919        C924   1.393       .  A
C919        H925   1.083       .  S
C920        C921   1.407       .  A
C921        C922   1.402       .  A
C921        H926   1.083       .  S
C922        C923   1.408   1_455  A
C922        H927   1.083       .  S
C923        C924   1.405       .  A
C924        H928   1.083       .  S
C929        C930   1.403       .  A
C929        C934   1.403       .  A
C929        H935   1.083       .  S
C930        C931   1.397   1_455  A
C931        C932   1.389       .  A
C931        H936   1.084       .  S
C932        C933   1.408       .  A
C932        H937   1.083       .  S
C933        C934   1.408   1_655  A
C934        H938   1.083       .  S
C939        C940   1.405       .  A
C939        C944   1.393       .  A
C939        H945   1.084       .  S
C940        C941   1.408       .  A
C941        C942   1.407       .  A
C941        H946   1.083       .  S
C942        C943   1.409       .  A
C942        H947   1.083       .  S
C943        C944   1.404       .  A
C944        H948   1.083       .  S
C949        C950   1.404       .  A
C949        C954   1.393       .  A
C949        H955   1.083       .  S
C950        C951   1.407       .  A
C951        C952   1.405       .  A
C951        H956   1.083       .  S
C952        C953   1.407       .  A
C952        H957   1.083       .  S
C953        C954   1.405       .  A
C954        H958   1.083       .  S
C959        C960   1.406       .  A
C959        C964   1.397       .  A
C959        H965   1.083       .  S
C960        C961   1.407       .  A
C961        C962   1.407       .  A
C961        H966   1.083       .  S
C962        C963   1.410       .  A
C962        H967   1.083       .  S
C963        C964   1.406       .  A
C964        H968   1.083       .  S
C969        C970   1.407   1_565  A
C969        C974   1.396       .  A
C969        H975   1.083       .  S
C970        C971   1.404       .  A
C971        C972   1.397       .  A
C971        H976   1.083       .  S
C972        C973   1.408   1_545  A
C972        H977   1.083       .  S
C973        C974   1.404       .  A
C974        H978   1.083       .  S
C979        C980   1.404   1_545  A
C979        H985   1.083       .  S
C980        C981   1.401       .  A
C981        H986   1.083       .  S
C982        C983   1.404       .  A
C982        H987   1.083       .  S
C983        C984   1.401   1_565  A
C984        H988   1.083       .  S
C989        C990   1.407       .  A
C989        C994   1.393       .  A
C989        H995   1.083   1_655  S
C990        C991   1.405       .  A
C991        C992   1.407       .  A
C991        H996   1.083       .  S
C992        C993   1.412       .  A
C992        H997   1.083       .  S
C993        C994   1.403       .  A
C994        H998   1.083   1_655  S
C999       C1000   1.404       .  A
C999       C1004   1.408       .  A
C1000      C1001   1.405       .  A
C1001      C1002   1.395       .  A
C1001      H1006   1.084       .  S
C1002      C1003   1.400       .  A
C1002      H1007   1.084       .  S
C1003      C1004   1.408       .  A
C1004      H1008   1.083       .  S
C1009      C1010   1.408       .  A
C1009      C1014   1.399       .  A
C1009      H1015   1.083       .  S
C1010      C1011   1.407       .  A
C1011      C1012   1.404       .  A
C1011      H1016   1.083       .  S
C1012      C1013   1.408       .  A
C1012      H1017   1.083       .  S
C1013      C1014   1.407       .  A
C1014      H1018   1.083       .  S
C1019      C1020   1.405       .  A
C1019      C1024   1.400       .  A
C1019      H1025   1.083       .  S
C1020      C1021   1.408       .  A
C1021      C1022   1.396       .  A
C1021      H1026   1.083       .  S
C1022      C1023   1.406       .  A
C1022      H1027   1.083       .  S
C1023      C1024   1.407       .  A
C1024      H1028   1.083       .  S
C1029      C1030   1.404       .  A
C1029      C1034   1.405       .  A
C1029      H1035   1.083       .  S
C1030      C1031   1.397       .  A
C1031      C1032   1.385       .  A
C1031      H1036   1.084       .  S
C1032      C1033   1.408       .  A
C1032      H1037   1.083       .  S
C1033      C1034   1.407       .  A
C1034      H1038   1.083       .  S
C1039      C1040   1.407       .  A
C1039      C1044   1.399       .  A
C1039      H1045   1.083       .  S
C1040      C1041   1.408       .  A
C1041      C1042   1.403       .  A
C1041      H1046   1.083       .  S
C1042      C1043   1.408       .  A
C1042      H1047   1.083       .  S
C1043      C1044   1.407       .  A
C1044      H1048   1.083       .  S
C1049      C1050   1.408       .  A
C1049      C1054   1.407       .  A
C1049      H1055   1.083       .  S
C1050      C1051   1.401       .  A
C1051      C1052   1.396       .  A
C1051      H1056   1.084       .  S
C1052      C1053   1.406       .  A
C1052      H1057   1.084       .  S
C1053      C1054   1.404       .  A
C1059      C1060   1.405       .  A
C1059      C1064   1.394       .  A
C1059      H1065   1.084       .  S
C1061      C1062   1.407       .  A
C1061      H1066   1.083       .  S
C1062      C1063   1.409       .  A
C1062      H1067   1.083       .  S
C1064      H1068   1.083       .  S
C1069      C1070   1.406       .  A
C1069      C1074   1.406       .  A
C1069      H1075   1.083       .  S
C1070      C1071   1.406       .  A
C1071      C1072   1.394       .  A
C1071      H1076   1.084       .  S
C1072      C1073   1.406       .  A
C1072      H1077   1.083       .  S
C1073      C1074   1.409       .  A
C1074      H1078   1.083       .  S
C1079      C1080   1.408       .  A
C1079      C1084   1.405       .  A
C1079      H1085   1.083       .  S
C1080      C1081   1.407       .  A
C1081      C1082   1.399       .  A
C1081      H1086   1.083       .  S
C1082      C1083   1.408       .  A
C1082      H1087   1.083       .  S
C1083      C1084   1.408       .  A
C1084      H1088   1.083       .  S
C1089      C1090   1.407       .  A
C1089      C1094   1.402       .  A
C1089      H1095   1.083       .  S
C1090      C1091   1.405       .  A
C1091      C1092   1.393       .  A
C1091      H1096   1.083   1_545  S
C1092      C1093   1.403       .  A
C1092      H1097   1.084   1_545  S
C1093      C1094   1.405       .  A
C1094      H1098   1.083       .  S
C1099      C1100   1.408       .  A
C1099      C1104   1.408       .  A
C1099      H1105   1.083       .  S
C1100      C1101   1.401       .  A
C1101      C1102   1.395       .  A
C1101      H1106   1.084       .  S
C1102      C1103   1.406       .  A
C1102      H1107   1.084       .  S
C1103      C1104   1.404       .  A
C1104      H1108   1.083       .  S
C1109      C1110   1.408       .  A
C1109      C1114   1.401       .  A
C1109      H1115   1.083       .  S
C1110      C1111   1.406       .  A
C1111      C1112   1.398       .  A
C1111      H1116   1.083       .  S
C1112      C1113   1.407       .  A
C1112      H1117   1.083       .  S
C1113      C1114   1.407       .  A
C1114      H1118   1.083       .  S
C1119      C1120   1.403   1_545  A
C1119      C1124   1.396       .  A
C1119      H1125   1.084       .  S
C1120      C1121   1.402       .  A
C1121      C1122   1.394       .  A
C1121      H1126   1.083       .  S
C1122      C1123   1.404       .  A
C1122      H1127   1.083       .  S
C1123      C1124   1.403   1_565  A
C1124      H1128   1.083       .  S
C1129      C1130   1.408   1_565  A
C1129      H1135   1.083       .  S
C1130      C1131   1.403       .  A
C1131      H1136   1.083       .  S
C1132      C1133   1.407   1_545  A
C1132      H1137   1.083       .  S
C1133      C1134   1.405       .  A
C1134      H1138   1.083       .  S
C1139      C1140   1.406       .  A
C1139      C1144   1.392       .  A
C1139      H1145   1.083       .  S
C1140      C1141   1.406       .  A
C1141      C1142   1.406       .  A
C1141      H1146   1.083       .  S
C1142      C1143   1.409       .  A
C1142      H1147   1.083       .  S
C1143      C1144   1.405       .  A
C1144      H1148   1.083       .  S
C1149      C1150   1.406       .  A
C1149      C1154   1.402       .  A
C1149      H1155   1.083       .  S
C1150      C1151   1.405       .  A
C1151      C1152   1.394       .  A
C1151      H1156   1.083       .  S
C1152      C1153   1.404       .  A
C1152      H1157   1.084       .  S
C1153      C1154   1.406       .  A
C1154      H1158   1.083       .  S
C1159      C1160   1.407   1_655  A
C1159      C1164   1.403       .  A
C1159      H1165   1.083       .  S
C1160      C1161   1.408       .  A
C1161      C1162   1.389       .  A
C1161      H1166   1.083       .  S
C1162      C1163   1.398       .  A
C1162      H1167   1.084       .  S
C1163      C1164   1.403   1_455  A
C1164      H1168   1.083       .  S
C1169      C1170   1.408   1_655  A
C1169      C1174   1.401       .  A
C1169      H1175   1.083       .  S
C1170      C1171   1.405       .  A
C1171      C1172   1.395       .  A
C1171      H1176   1.083       .  S
C1172      C1173   1.407   1_455  A
C1172      H1177   1.083       .  S
C1173      C1174   1.406       .  A
C1174      H1178   1.083       .  S
C1179      C1180   1.407       .  A
C1179      C1184   1.405       .  A
C1179      H1185   1.083       .  S
C1180      C1181   1.406       .  A
C1181      C1182   1.396       .  A
C1181      H1186   1.083       .  S
C1182      C1183   1.406       .  A
C1182      H1187   1.083       .  S
C1183      C1184   1.409       .  A
C1184      H1188   1.083       .  S
C1189      C1190   1.406       .  A
C1189      C1194   1.394       .  A
C1189      H1195   1.083       .  S
C1190      C1191   1.409       .  A
C1191      C1192   1.405       .  A
C1191      H1196   1.083       .  S
C1192      C1193   1.405       .  A
C1192      H1197   1.083       .  S
C1193      C1194   1.406       .  A
C1194      H1198   1.083       .  S
C1199      C1200   1.407       .  A
C1199      C1204   1.405       .  A
C1199      H1205   1.083   1_554  S
C1201      C1202   1.396       .  A
C1201      H1206   1.083       .  S
C1202      C1203   1.405       .  A
C1202      H1207   1.084       .  S
C1204      H1208   1.083       .  S
C1209      C1210   1.405       .  A
C1209      C1214   1.402       .  A
C1209      H1215   1.084       .  S
C1210      C1211   1.402       .  A
C1211      C1212   1.399       .  A
C1211      H1216   1.084       .  S
C1212      C1213   1.405       .  A
C1212      H1217   1.084       .  S
C1213      C1214   1.402       .  A
C1214      H1218   1.083       .  S
C1219      C1220   1.404       .  A
C1219      C1224   1.394       .  A
C1219      H1225   1.083       .  S
C1220      C1221   1.408       .  A
C1221      C1222   1.402       .  A
C1221      H1226   1.083       .  S
C1222      C1223   1.406       .  A
C1222      H1227   1.083       .  S
C1223      C1224   1.407       .  A
C1224      H1228   1.083       .  S
C1229      C1230   1.408       .  A
C1229      C1234   1.404       .  A
C1229      H1235   1.083       .  S
C1230      C1231   1.409       .  A
C1231      C1232   1.393       .  A
C1231      H1236   1.083       .  S
C1232      C1233   1.398       .  A
C1232      H1237   1.084       .  S
C1233      C1234   1.404       .  A
C1234      H1238   1.083       .  S
C1239      C1240   1.408       .  A
C1239      C1244   1.404       .  A
C1239      H1245   1.083       .  S
C1240      C1241   1.407       .  A
C1241      C1242   1.398       .  A
C1241      H1246   1.083       .  S
C1242      C1243   1.406       .  A
C1242      H1247   1.083       .  S
C1243      C1244   1.406       .  A
C1244      H1248   1.083       .  S
