geometry optimzed in LAMMPS
_audit_creation_date              2020-12-01 
_audit_creation_method            'lammps2cif' 
_symmetry_space_group_name_H-M    'P1' 
_symmetry_Int_Tables_number       1 
_symmetry_cell_setting            triclinic 
loop_ 
_symmetry_equiv_pos_as_xyz 
  x,y,z 
_cell_length_a                    47.53400912 
_cell_length_b                    47.584239598210374 
_cell_length_c                    102.06779823236717 
_cell_angle_alpha                 89.75960873031052 
_cell_angle_beta                  90.33083166774175 
_cell_angle_gamma                 89.70686124319998 
loop_ 
_atom_site_label 
_atom_site_type_symbol 
_atom_site_fract_x 
_atom_site_fract_y 
_atom_site_fract_z 
_atom_site_charge 
Zr1        Zr  0.13481982  0.98727584  0.55545757     2.17500
O2          O  0.12785056  0.03662378  0.54976148    -0.51100
O3          O  0.17560008  0.99286105  0.54052559    -0.74300
O4          O  0.15242185  0.02003400  0.57369447    -0.81100
O5          O  0.07983121  0.95743604  0.53083462    -0.82800
O6          O  0.16365887  0.99447664  0.59190368    -0.78500
O7          O  0.09690154  0.99860302  0.53900127    -0.90100
O8          O  0.20002231  0.95191804  0.54085942    -0.76000
O9          O  0.16864221  0.96062440  0.56770300    -0.85500
O10         O  0.14330593  0.94473360  0.54312381    -0.85200
O11         O  0.11269675  0.97685045  0.57613382    -0.72000
O12         O  0.09254560  0.95977652  0.55371085    -0.84100
Zr13       Zr  0.11300707  0.88329390  0.57432257     2.26400
Zr14       Zr  0.14625737  0.94869537  0.58800089     2.06300
Zr15       Zr  0.10110176  0.91735846  0.54158264     2.10000
Zr16       Zr  0.17756245  0.91893100  0.55549083     1.78800
O17         O  0.06635609  0.91154166  0.52416254    -0.92900
O18         O  0.22072699  0.92821799  0.56771673    -0.40700
O19         O  0.13544462  0.89106902  0.55356772    -0.77400
O20         O  0.15723705  0.90695155  0.57621710    -0.96100
O21         O  0.10266612  0.92467758  0.58642291    -0.89400
O22         O  0.07902272  0.90908067  0.56195734    -0.92200
C23         C  0.19595078  0.97698452  0.53654592     1.01600
C24         C  0.08024930  0.98432428  0.53140959     1.14500
C25         C  0.16208951  0.01765938  0.58570064     1.05300
O26         O  0.19296986  0.93732837  0.59645719    -0.94400
O27         O  0.13960156  0.91634772  0.60590455    -0.90100
O28         O  0.12377566  0.87533817  0.59723194    -0.83200
C29         C  0.13223674  0.89063665  0.60677245     1.11900
O30         O  0.04642400  0.99649574  0.57235855    -0.96300
Zr31       Zr  0.06977026  0.95093889  0.57383663     1.88900
O32         O  0.06692393  0.87253751  0.58286989    -0.73000
O33         O  0.13192139  0.97533211  0.60721690    -0.52200
O34         O  0.05723208  0.96850851  0.59541247    -0.96900
O35         O  0.02723819  0.95270678  0.56038748    -0.54100
O36         O  0.04160693  0.91328712  0.58257495    -0.73500
C37         C  0.04438853  0.88685557  0.58465340     0.98800
O38         O  0.13624303  0.83814013  0.57826984    -0.62300
O39         O  0.13235898  0.90285372  0.52398809    -0.57100
O40         O  0.09091247  0.84861676  0.56057120    -0.93800
O41         O  0.07723192  0.87057529  0.54195178    -0.92200
O42         O  0.19337883  0.89498353  0.53578177    -0.92600
O43         O  0.20444335  0.87570230  0.55877444    -0.91400
C44         C  0.07730100  0.84895361  0.54969967     1.17700
H45         H  0.14918440  0.94882054  0.53428514     0.33600
H46         H  0.17028601  0.89549014  0.58121404     0.44500
H47         H  0.06167229  0.89904575  0.56055348     0.38000
H48         H  0.10855597  0.99390261  0.58086781     0.34500
H49         H  0.23606618  0.92229264  0.56180016     0.26300
H50         H  0.11312665  0.96798742  0.60949153     0.32200
H51         H  0.06427570  0.95403480  0.60162431     0.38100
H52         H  0.17992113  0.87941868  0.53448975     0.32600
H53         H  0.12738527  0.88301218  0.52229680     0.31500
H54         H  0.07600729  0.90086979  0.51719212     0.33100
H55         H  0.01314705  0.94140470  0.56515485     0.32100
H56         H  0.19005747  0.86082911  0.55957294     0.36100
H57         H  0.13358613  0.82687055  0.57023825     0.28800
H58         H  0.14664048  0.04532508  0.55062880     0.33100
H59         H  0.05546184  0.00592660  0.56481968     0.35900
H60         H  0.12563354  0.91324504  0.51614076     0.28500
H61         H  0.15654647  0.84263776  0.57826803     0.41400
H62         H  0.20528205  0.95228786  0.59300299     0.31500
H63         H  0.22229143  0.94894409  0.56799891     0.39100
H64         H  0.03184212  0.94131427  0.55258749     0.30900
H65         H  0.14442729  0.96878734  0.61441269     0.31000
H66         H  0.11670269  0.04456216  0.55704572     0.31300
Zr67       Zr  0.28420961  0.14379206  0.69114922     2.17500
O68         O  0.23447518  0.15046942  0.69602243    -0.51100
O69         O  0.27889763  0.10274576  0.70591489    -0.74300
O70         O  0.25247005  0.12378576  0.67324956    -0.81100
O71         O  0.30906516  0.20147749  0.71536178    -0.82800
O72         O  0.27907613  0.11241370  0.65556759    -0.78500
O73         O  0.26960637  0.18077695  0.70706968    -0.90100
O74         O  0.32063652  0.07949337  0.70633818    -0.76000
O75         O  0.31371097  0.11047831  0.68033306    -0.85500
O76         O  0.32627517  0.13916982  0.70448890    -0.85200
O77         O  0.29436539  0.16367152  0.66992311    -0.72000
O78         O  0.30860034  0.18803583  0.69229384    -0.84100
Zr79       Zr  0.38770639  0.17028514  0.67352179     2.26400
Zr80       Zr  0.32534313  0.13069174  0.65945223     2.06300
Zr81       Zr  0.35104631  0.18332178  0.70525931     2.10000
Zr82       Zr  0.35493191  0.10553554  0.69357269     1.78800
O83         O  0.35424789  0.22152203  0.72099651    -0.92900
O84         O  0.35422252  0.05962904  0.68308093    -0.40700
O85         O  0.37982962  0.14951205  0.69468067    -0.77400
O86         O  0.36691185  0.12433083  0.67241347    -0.96100
O87         O  0.34647061  0.17592228  0.66044767    -0.89400
O88         O  0.35892598  0.20378829  0.68443646    -0.92200
C89         C  0.29490944  0.08242119  0.70990599     1.01600
C90         C  0.28233450  0.19868167  0.71456495     1.14500
C91         C  0.25553422  0.11355490  0.66148278     1.05300
O92         O  0.33440741  0.08199288  0.65351298    -0.94400
O93         O  0.36074138  0.13432715  0.64251281    -0.90100
O94         O  0.39827133  0.15733982  0.65125652    -0.83200
C95         C  0.38540454  0.14498820  0.64186695     1.11900
O96         O  0.27048399  0.22909781  0.66912291    -0.96300
Zr97       Zr  0.31718831  0.20829360  0.67149113     1.88900
O98         O  0.39599806  0.21577247  0.66340285    -0.73000
O99         O  0.30887184  0.14476914  0.63767857    -0.52200
O100        O  0.30263475  0.21571193  0.64880829    -0.96900
O101        O  0.30715019  0.25143323  0.68340822    -0.54100
O102        O  0.35367971  0.23833499  0.66336073    -0.73500
C103        C  0.38016584  0.23721669  0.66125524     0.98800
O104        O  0.43495100  0.15026068  0.67252509    -0.62300
O105        O  0.36605281  0.15663989  0.72449658    -0.57100
O106        O  0.42111235  0.19566223  0.68684636    -0.93800
O107        O  0.39761859  0.20861483  0.70510293    -0.92200
O108        O  0.37548074  0.09762696  0.71519875    -0.92600
O109        O  0.40157415  0.08417215  0.69287811    -0.91400
C110        C  0.41966502  0.20931860  0.69762908     1.17700
H111        H  0.32179437  0.13328929  0.71329902     0.33600
H112        H  0.37958691  0.11152191  0.66806614     0.44500
H113        H  0.36784206  0.22178571  0.68561989     0.38000
H114        H  0.27740128  0.16634159  0.66482394     0.34500
H115        H  0.35968756  0.04619396  0.69009204     0.26300
H116        H  0.29697327  0.12936465  0.63430362     0.32200
H117        H  0.31986567  0.22157572  0.64415700     0.38100
H118        H  0.37392881  0.07712560  0.71671861     0.32600
H119        H  0.38659320  0.15980930  0.72506375     0.31500
H120        H  0.35163033  0.23886056  0.71571477     0.33100
H121        H  0.31440349  0.26672590  0.67777292     0.32100
H122        H  0.41445231  0.10009533  0.69126958     0.36100
H123        H  0.43253366  0.13148726  0.66853824     0.28800
H124        H  0.22612618  0.13146663  0.69570382     0.33100
H125        H  0.25736124  0.21301520  0.66925677     0.35900
H126        H  0.35819316  0.16713286  0.73200390     0.28500
H127        H  0.44485277  0.16146852  0.66579560     0.41400
H128        H  0.31941215  0.07115356  0.65790183     0.31500
H129        H  0.33405685  0.05575343  0.68147169     0.39100
H130        H  0.32013379  0.25093744  0.69102571     0.30900
H131        H  0.29580417  0.16064833  0.63918362     0.31000
H132        H  0.22654322  0.16048737  0.68830583     0.31300
Zr133      Zr  0.38083684  0.49102899  0.55299557     2.17500
O134        O  0.37998522  0.54194814  0.55029139    -0.51100
O135        O  0.34151559  0.49552671  0.53718602    -0.74300
O136        O  0.41410377  0.50587816  0.53534825    -0.81100
O137        O  0.34482831  0.49543814  0.58769619    -0.82800
O138        O  0.43286239  0.46611147  0.52646493    -0.78500
O139        O  0.36320935  0.52231548  0.57137926    -0.90100
O140        O  0.32074388  0.45290426  0.53493109    -0.76000
O141        O  0.37943194  0.44928130  0.53984448    -0.85500
O142        O  0.34581612  0.46079198  0.56211248    -0.85200
O143        O  0.42712074  0.46907977  0.55378332    -0.72000
O144        O  0.39604786  0.47993188  0.57493826    -0.84100
Zr145      Zr  0.40542022  0.38771524  0.57160930     2.26400
Zr146      Zr  0.42479590  0.42651638  0.54082354     2.06300
Zr147      Zr  0.36141779  0.44859904  0.58384206     2.10000
Zr148      Zr  0.34462148  0.41950495  0.54895531     1.78800
O149        O  0.36602594  0.46697020  0.60599951    -0.92900
O150        O  0.34433419  0.39963012  0.52697843    -0.40700
O151        O  0.35872865  0.40712518  0.57088513    -0.77400
O152        O  0.38960301  0.39662895  0.54968537    -0.96100
O153        O  0.44048407  0.41718997  0.56251435    -0.89400
O154        O  0.40750239  0.42899709  0.58464055    -0.92200
C155        C  0.32298798  0.47903940  0.53212980     1.01600
C156        C  0.35031602  0.51925965  0.58255477     1.14500
C157        C  0.42970488  0.49288127  0.52688159     1.05300
O158        O  0.40876816  0.40879960  0.51974460    -0.94400
O159        O  0.44591862  0.37841538  0.54012290    -0.90100
O160        O  0.43274959  0.35511456  0.55858060    -0.83200
C161        C  0.44551370  0.35623461  0.54753292     1.11900
O162        O  0.45881320  0.50578548  0.57972598    -0.96300
Zr163      Zr  0.44175922  0.45851132  0.57547929     1.88900
O164        O  0.44908810  0.37902170  0.58314245    -0.73000
O165        O  0.47426759  0.42653243  0.53448376    -0.52200
O166        O  0.48649913  0.46848021  0.56493117    -0.96900
O167        O  0.44754197  0.47018391  0.59859529    -0.54100
O168        O  0.47103846  0.42139451  0.58426526    -0.73500
C169        C  0.46974711  0.39485402  0.58624095     0.98800
O170        O  0.38303011  0.34178849  0.57216513    -0.62300
O171        O  0.31139431  0.43871291  0.58566040    -0.57100
O172        O  0.39196174  0.37749119  0.59382154    -0.93800
O173        O  0.36416361  0.41315192  0.60119394    -0.92200
O174        O  0.29625420  0.41947911  0.55669956    -0.92600
O175        O  0.32386539  0.37281093  0.54846121    -0.91400
C176        C  0.37757691  0.38984382  0.60269572     1.17700
H177        H  0.32765865  0.47001036  0.56230454     0.33600
H178        H  0.38863896  0.37929845  0.54481470     0.44500
H179        H  0.41352827  0.42514026  0.59350512     0.38000
H180        H  0.44186849  0.48118130  0.55068274     0.34500
H181        H  0.32419692  0.39843613  0.52451756     0.26300
H182        H  0.47931086  0.44632461  0.53270200     0.32200
H183        H  0.49546703  0.44986077  0.56371182     0.38100
H184        H  0.29655669  0.40754483  0.56466797     0.32600
H185        H  0.31046832  0.42064778  0.59047973     0.31500
H186        H  0.34756299  0.46361063  0.61015598     0.33100
H187        H  0.45187198  0.45223725  0.60313764     0.32100
H188        H  0.33071357  0.36356892  0.55659126     0.36100
H189        H  0.39523953  0.33017283  0.57794130     0.28800
H190        H  0.37698961  0.54531628  0.54080515     0.33100
H191        H  0.44194323  0.51795389  0.57886991     0.35900
H192        H  0.30423411  0.45284078  0.59192129     0.28500
H193        H  0.36550864  0.34455754  0.57721319     0.41400
H194        H  0.42569977  0.40014629  0.51581343     0.31500
H195        H  0.35181599  0.41469838  0.52127951     0.39100
H196        H  0.42838492  0.47518732  0.60157252     0.30900
H197        H  0.48463981  0.42184546  0.54264732     0.31000
H198        H  0.39951975  0.54803332  0.55205605     0.31300
Zr199      Zr  0.23667777  0.63649133  0.68997859     2.17500
O200        O  0.28737414  0.63197171  0.69317302    -0.51100
O201        O  0.23735952  0.59436786  0.70441404    -0.74300
O202        O  0.25187358  0.66398022  0.70961009    -0.81100
O203        O  0.24291387  0.61782879  0.65259380    -0.82800
O204        O  0.21247777  0.68261229  0.71892513    -0.78500
O205        O  0.26867876  0.62147857  0.67138769    -0.90100
O206        O  0.19226380  0.58165305  0.70779338    -0.76000
O207        O  0.19399020  0.63547183  0.70244820    -0.85500
O208        O  0.20521841  0.60512221  0.67895821    -0.85200
O209        O  0.21829737  0.68420127  0.69096408    -0.72000
O210        O  0.22747971  0.65670525  0.66865297    -0.84100
Zr211      Zr  0.13661423  0.67058978  0.67158050     2.26400
Zr212      Zr  0.17476546  0.68232635  0.70320925     2.06300
Zr213      Zr  0.19470969  0.62582347  0.65798470     2.10000
Zr214      Zr  0.16306081  0.60411215  0.69153776     1.78800
O215        O  0.20618779  0.61937246  0.63493834    -0.92900
O216        O  0.13249862  0.59856024  0.71044172    -0.40700
O217        O  0.15264749  0.62302161  0.67029465    -0.77400
O218        O  0.14316431  0.65043529  0.69286458    -0.96100
O219        O  0.16775199  0.70161627  0.68225166    -0.89400
O220        O  0.17818681  0.67320274  0.65869154    -0.92200
C221        C  0.21858233  0.57959565  0.71035163     1.01600
C222        C  0.26618318  0.61663669  0.65885700     1.14500
C223        C  0.23893510  0.67744891  0.71884305     1.05300
O224        O  0.15230947  0.66970799  0.72375388    -0.94400
O225        O  0.12986131  0.70960715  0.70325446    -0.90100
O226        O  0.10508803  0.69723170  0.68512775    -0.83200
C227        C  0.10786161  0.71123154  0.69574492     1.11900
O228        O  0.25882269  0.71454273  0.66626562    -0.96300
Zr229      Zr  0.20940178  0.70367203  0.66980018     1.88900
O230        O  0.13088031  0.71845147  0.66439497    -0.73000
O231        O  0.18339169  0.73102170  0.70934813    -0.52200
O232        O  0.22619858  0.74538275  0.68113260    -0.96900
O233        O  0.21609227  0.71497514  0.64669952    -0.54100
O234        O  0.17360833  0.73948781  0.66624007    -0.73500
C235        C  0.14689557  0.73997824  0.66430621     0.98800
O236        O  0.08916968  0.65246430  0.66862989    -0.62300
O237        O  0.18439980  0.57574750  0.65751672    -0.57100
O238        O  0.12531423  0.66196953  0.64906599    -0.93800
O239        O  0.15941103  0.63340618  0.64090277    -0.92200
O240        O  0.16957194  0.55578998  0.68428091    -0.92600
O241        O  0.11784177  0.58300913  0.68622316    -0.91400
C242        C  0.13654579  0.64768406  0.63987103     1.17700
H243        H  0.21377757  0.58675224  0.67816938     0.33600
H244        H  0.12550315  0.64987307  0.69749915     0.44500
H245        H  0.17469306  0.68094641  0.65008185     0.38000
H246        H  0.23139663  0.69704016  0.69496581     0.34500
H247        H  0.13820238  0.58044458  0.71448743     0.26300
H248        H  0.18184777  0.73136162  0.71901430     0.32200
H249        H  0.22341170  0.76097656  0.67479598     0.38100
H250        H  0.15793985  0.54433995  0.69026958     0.32600
H251        H  0.16820023  0.57409173  0.65143240     0.31500
H252        H  0.20263624  0.59926717  0.63312530     0.33100
H253        H  0.22991145  0.70092429  0.64356508     0.32100
H254        H  0.10731501  0.59786130  0.68142560     0.36100
H255        H  0.08279730  0.64753283  0.67756358     0.28800
H256        H  0.29008340  0.62754760  0.70258052     0.33100
H257        H  0.26906021  0.70291681  0.67281907     0.35900
H258        H  0.20037772  0.56717390  0.65277733     0.28500
H259        H  0.07760144  0.66898714  0.66607906     0.41400
H260        H  0.15013248  0.68775962  0.72843903     0.31500
H261        H  0.13895839  0.61298547  0.71672051     0.39100
H262        H  0.22633959  0.73303912  0.64662824     0.30900
H263        H  0.20358946  0.73420842  0.70759223     0.31000
H264        H  0.29474524  0.65126586  0.69210581     0.31300
Zr265      Zr  0.63382301  0.04578205  0.55568391     2.17500
O266        O  0.62736608  0.99513094  0.55440673    -0.51100
O267        O  0.67507669  0.04296333  0.54142879    -0.74300
O268        O  0.60831019  0.03349495  0.53504860    -0.81100
O269        O  0.65706795  0.03645799  0.59238736    -0.82800
O270        O  0.59257951  0.07456841  0.52594785    -0.78500
O271        O  0.65511118  0.01310187  0.57298306    -0.90100
O272        O  0.69506208  0.08629101  0.54083497    -0.76000
O273        O  0.63996201  0.08915735  0.54382991    -0.85500
O274        O  0.66515794  0.07403008  0.56831182    -0.85200
O275        O  0.58814331  0.06846948  0.55331351    -0.72000
O276        O  0.61027899  0.05431998  0.57609069    -0.84100
Zr277      Zr  0.60493228  0.14700906  0.57438245     2.26400
Zr278      Zr  0.59493033  0.11243571  0.54169889     2.06300
Zr279      Zr  0.64148008  0.08339332  0.58855002     2.10000
Zr280      Zr  0.67188819  0.11653601  0.55637183     1.78800
O281        O  0.62224237  0.06355406  0.60861595    -0.92900
O282        O  0.68271829  0.14699597  0.53784348    -0.40700
O283        O  0.65039918  0.12608842  0.57705002    -0.77400
O284        O  0.62760619  0.14042405  0.55374190    -0.96100
O285        O  0.57264197  0.11987038  0.56198640    -0.89400
O286        O  0.59642693  0.10475613  0.58623785    -0.92200
C287        C  0.69308902  0.06075257  0.53708475     1.01600
C288        C  0.66076671  0.01449800  0.58551269     1.14500
C289        C  0.59568825  0.04772416  0.52585091     1.05300
O290        O  0.61447364  0.13781952  0.52312618    -0.94400
O291        O  0.56805057  0.15807369  0.54244274    -0.90100
O292        O  0.58201394  0.18151859  0.56059453    -0.83200
C293        C  0.56756517  0.18001109  0.54997621     1.11900
O294        O  0.54659163  0.02998567  0.57562643    -0.96300
Zr295      Zr  0.56549028  0.07725582  0.57348840     1.88900
O296        O  0.55775571  0.15635501  0.58141562    -0.73000
O297        O  0.55042498  0.10557058  0.53021906    -0.52200
O298        O  0.52591975  0.06865788  0.55876495    -0.96900
O299        O  0.55015250  0.06316649  0.59527475    -0.54100
O300        O  0.53363763  0.11557826  0.57863919    -0.73500
C301        C  0.53517641  0.14187449  0.58133509     0.98800
O302        O  0.62691401  0.19248680  0.57799660    -0.62300
O303        O  0.68893798  0.08866830  0.59729519    -0.57100
O304        O  0.61220015  0.15469305  0.59752550    -0.93800
O305        O  0.63796559  0.11804165  0.60568245    -0.92200
O306        O  0.71711507  0.10788469  0.56705386    -0.92600
O307        O  0.69672914  0.15958395  0.56183453    -0.91400
C308        C  0.62508466  0.14158218  0.60679204     1.17700
H309        H  0.68280846  0.06427742  0.56975558     0.33600
H310        H  0.63029016  0.15832607  0.54942317     0.44500
H311        H  0.58778102  0.10820944  0.59461850     0.38000
H312        H  0.57500664  0.05679845  0.54868884     0.34500
H313        H  0.70162881  0.14097077  0.53491872     0.26300
H314        H  0.55108885  0.11854639  0.52262406     0.32200
H315        H  0.50924441  0.06809915  0.56452406     0.38100
H316        H  0.72989064  0.10194528  0.55994671     0.32600
H317        H  0.68864179  0.07867146  0.60582202     0.31500
H318        H  0.63857051  0.06135398  0.61460869     0.33100
H319        H  0.54391540  0.08073425  0.59955579     0.32100
H320        H  0.68186959  0.17255550  0.56493689     0.36100
H321        H  0.64485046  0.18803847  0.58255036     0.28800
H322        H  0.63459045  0.98966799  0.54570043     0.33100
H323        H  0.55490937  0.01944685  0.56824148     0.35900
H324        H  0.70096837  0.07680072  0.59166647     0.28500
H325        H  0.63274084  0.19886706  0.56917902     0.41400
H326        H  0.61078113  0.12561849  0.51548074     0.31500
H327        H  0.66985818  0.14083767  0.53077331     0.39100
H328        H  0.56766746  0.05777586  0.59996017     0.30900
H329        H  0.53592293  0.11359684  0.53605812     0.31000
H330        H  0.60675512  0.99245189  0.55388034     0.31300
Zr331      Zr  0.79461749  0.88885166  0.68930660     2.17500
O332        O  0.74441420  0.88879745  0.69404300    -0.51100
O333        O  0.79601047  0.93082352  0.70320261    -0.74300
O334        O  0.78429821  0.86488570  0.71071615    -0.81100
O335        O  0.78354988  0.90699555  0.65189449    -0.82800
O336        O  0.82596745  0.85039837  0.71964283    -0.78500
O337        O  0.76120386  0.90825382  0.67156142    -0.90100
O338        O  0.84127676  0.94591352  0.70376322    -0.76000
O339        O  0.83941907  0.89437431  0.69996627    -0.85500
O340        O  0.82323129  0.91730793  0.67535446    -0.85200
O341        O  0.81527310  0.84236734  0.69251768    -0.72000
O342        O  0.80003227  0.86313064  0.66912732    -0.84100
Zr343      Zr  0.89195493  0.85084059  0.66960321     2.26400
Zr344      Zr  0.86073335  0.84893701  0.70293322     2.06300
Zr345      Zr  0.83040185  0.89100844  0.65557317     2.10000
Zr346      Zr  0.86720672  0.92313431  0.68624165     1.78800
O347        O  0.80832945  0.87934481  0.63473313    -0.92900
O348        O  0.90280225  0.93448545  0.70262694    -0.40700
O349        O  0.87452275  0.89779658  0.66619814    -0.77400
O350        O  0.88908286  0.87788936  0.68930755    -0.96100
O351        O  0.86391199  0.82267106  0.68348126    -0.89400
O352        O  0.84809793  0.84455918  0.65858655    -0.92200
C353        C  0.81586761  0.94602475  0.70798244     1.01600
C354        C  0.76201512  0.91225765  0.65884717     1.14500
C355        C  0.79930324  0.85356264  0.72006058     1.05300
O356        O  0.88352433  0.87032669  0.72182152    -0.94400
O357        O  0.90789807  0.82635991  0.70370935    -0.90100
O358        O  0.92780410  0.83108999  0.68362975    -0.83200
C359        C  0.92843842  0.82311574  0.69560904     1.11900
O360        O  0.76957861  0.80809597  0.67156181    -0.96300
Zr361      Zr  0.81989813  0.81730687  0.67268295     1.88900
O362        O  0.89680410  0.80116556  0.66505101    -0.73000
O363        O  0.85631514  0.80375015  0.71410714    -0.52200
O364        O  0.80458720  0.77884619  0.68673537    -0.96900
O365        O  0.80984853  0.79703043  0.65128413    -0.54100
O366        O  0.85486396  0.78111959  0.66937292    -0.73500
C367        C  0.88087980  0.77969725  0.66614610     0.98800
O368        O  0.93934063  0.86612586  0.66411991    -0.62300
O369        O  0.83957130  0.93871019  0.64802400    -0.57100
O370        O  0.89825389  0.85374975  0.64632350    -0.93800
O371        O  0.86320093  0.88114135  0.63791004    -0.92200
O372        O  0.85622913  0.96809761  0.67585422    -0.92600
O373        O  0.90879077  0.94742249  0.67831782    -0.91400
C374        C  0.88578885  0.86644654  0.63685378     1.17700
H375        H  0.81403589  0.93509249  0.67363723     0.33600
H376        H  0.90757450  0.88025652  0.69311897     0.44500
H377        H  0.85000333  0.83468539  0.65040280     0.38000
H378        H  0.80370225  0.83001495  0.69765566     0.34500
H379        H  0.89865835  0.95412605  0.70517334     0.26300
H380        H  0.83646946  0.79814807  0.71279030     0.32200
H381        H  0.82177578  0.77274027  0.69149633     0.38100
H382        H  0.85505566  0.98161202  0.68318146     0.32600
H383        H  0.83733937  0.93772686  0.63838834     0.31500
H384        H  0.80229357  0.85958643  0.63578897     0.33100
H385        H  0.79432200  0.80861296  0.64761236     0.32100
H386        H  0.92257818  0.93223640  0.67657394     0.36100
H387        H  0.94714000  0.85118682  0.65844902     0.28800
H388        H  0.74265216  0.89822095  0.70263789     0.33100
H389        H  0.76099943  0.82241000  0.67733769     0.35900
H390        H  0.82312856  0.94987106  0.65092478     0.28500
H391        H  0.93684228  0.88263622  0.65828163     0.41400
H392        H  0.90331724  0.87306168  0.71916844     0.31500
H393        H  0.89772842  0.92311253  0.71038841     0.39100
H394        H  0.80120186  0.77859485  0.65322857     0.30900
H395        H  0.86714652  0.79031527  0.70871115     0.31000
H396        H  0.73963884  0.86889908  0.69577143     0.31300
Zr397      Zr  0.89223260  0.53748409  0.55197338     2.17500
O398        O  0.89871914  0.48842267  0.54583522    -0.51100
O399        O  0.85344386  0.53204897  0.53569843    -0.74300
O400        O  0.87299456  0.50428803  0.56955255    -0.81100
O401        O  0.94904467  0.56556911  0.52798224    -0.82800
O402        O  0.85581570  0.53079395  0.58620313    -0.78500
O403        O  0.93276964  0.52522916  0.53732291    -0.90100
O404        O  0.82794349  0.57254203  0.53527091    -0.76000
O405        O  0.85598845  0.56530251  0.56189230    -0.85500
O406        O  0.88676488  0.57956556  0.53882314    -0.85200
O407        O  0.90858270  0.54826528  0.57387805    -0.72000
O408        O  0.93587749  0.56342151  0.55222469    -0.84100
Zr409      Zr  0.91167322  0.64157959  0.57047712     2.26400
Zr410      Zr  0.87278392  0.57769845  0.58330320     2.06300
Zr411      Zr  0.92989843  0.60557444  0.53919773     2.10000
Zr412      Zr  0.85081037  0.60694669  0.54895500     1.78800
O413        O  0.96875321  0.60970509  0.52385403    -0.92900
O414        O  0.80260884  0.60474411  0.55686548    -0.40700
O415        O  0.89388412  0.63333780  0.54878133    -0.77400
O416        O  0.86636746  0.61936670  0.57057280    -0.96100
O417        O  0.91711928  0.60057819  0.58363286    -0.89400
O418        O  0.94750227  0.61392878  0.56055424    -0.92200
C419        C  0.83291333  0.54748243  0.53135029     1.01600
C420        C  0.94928672  0.53888215  0.52946139     1.14500
C421        C  0.86028023  0.50711841  0.58080557     1.05300
O422        O  0.82359957  0.59059046  0.58626914    -0.94400
O423        O  0.88004498  0.60964942  0.60147607    -0.90100
O424        O  0.89896238  0.64949133  0.59296803    -0.83200
C425        C  0.88914620  0.63485241  0.60246096     1.11900
O426        O  0.97163653  0.52555302  0.57518348    -0.96300
Zr427      Zr  0.95228889  0.57297805  0.57385336     1.88900
O428        O  0.95524227  0.65281836  0.58148185    -0.73000
O429        O  0.87524648  0.56005511  0.60576776    -0.52200
O430        O  0.95442505  0.55917669  0.59684561    -0.96900
O431        O  0.00101929  0.56872787  0.56685413    -0.54100
O432        O  0.97850736  0.61110769  0.58353261    -0.73500
C433        C  0.97645929  0.63780189  0.58489728     0.98800
O434        O  0.88830868  0.68718313  0.57163346    -0.62300
O435        O  0.90335212  0.62317303  0.52038497    -0.57100
O436        O  0.93800512  0.67549878  0.55784380    -0.93800
O437        O  0.95459310  0.65170693  0.54029329    -0.92200
O438        O  0.84463644  0.62899444  0.52754912    -0.92600
O439        O  0.82667535  0.65195558  0.55100556    -0.91400
C440        C  0.95360070  0.67377914  0.54765861     1.17700
H441        H  0.88225117  0.57527227  0.52982034     0.33600
H442        H  0.85275230  0.63160884  0.57465368     0.44500
H443        H  0.96537320  0.62340138  0.56001534     0.38000
H444        H  0.91148494  0.53172146  0.57898280     0.34500
H445        H  0.79075716  0.60628220  0.54887648     0.26300
H446        H  0.85625681  0.55315806  0.60803982     0.32200
H447        H  0.97204085  0.56754789  0.60023035     0.38100
H448        H  0.82461175  0.62591546  0.52526572     0.32600
H449        H  0.91133241  0.64198794  0.51862096     0.31500
H450        H  0.96166750  0.62196307  0.51669108     0.33100
H451        H  0.01204715  0.56655294  0.57505897     0.32100
H452        H  0.84150798  0.66519649  0.55380712     0.36100
H453        H  0.88382591  0.69209179  0.56241554     0.28800
H454        H  0.87959314  0.48028685  0.54575029     0.33100
H455        H  0.96084486  0.51477932  0.56859057     0.35900
H456        H  0.90967051  0.61146341  0.51295442     0.28500
H457        H  0.86980200  0.68329530  0.57563652     0.41400
H458        H  0.82387547  0.60507945  0.59320418     0.31500
H459        H  0.80016911  0.58509321  0.55984631     0.39100
H460        H  0.00606998  0.58762397  0.56355103     0.30900
H461        H  0.88750083  0.54320809  0.60562004     0.31000
H462        H  0.90833354  0.47946792  0.55341956     0.31300
Zr463      Zr  0.73633473  0.38651561  0.68788559     2.17500
O464        O  0.78602306  0.38069765  0.69330552    -0.51100
O465        O  0.74223231  0.42897214  0.70165809    -0.74300
O466        O  0.76757323  0.40503156  0.66928768    -0.81100
O467        O  0.70696398  0.33531219  0.71434449    -0.82800
O468        O  0.74171613  0.41249356  0.65071646    -0.78500
O469        O  0.74790598  0.34890748  0.70468711    -0.90100
O470        O  0.70133862  0.45341806  0.70102374    -0.76000
O471        O  0.70901892  0.41780862  0.67460358    -0.85500
O472        O  0.69430940  0.39707762  0.70026716    -0.85200
O473        O  0.72590962  0.36175387  0.66783864    -0.72000
O474        O  0.70843716  0.34500741  0.69094735    -0.84100
Zr475      Zr  0.63185968  0.36152277  0.67033830     2.26400
Zr476      Zr  0.69681072  0.39293402  0.65500222     2.06300
Zr477      Zr  0.66653170  0.35545922  0.70320236     2.10000
Zr478      Zr  0.66813947  0.42917354  0.68686862     1.78800
O479        O  0.66038818  0.32374224  0.72175333    -0.92900
O480        O  0.67953267  0.47338471  0.67599163    -0.40700
O481        O  0.64008183  0.38759791  0.69011771    -0.77400
O482        O  0.65561528  0.40541125  0.66690228    -0.96100
O483        O  0.67264097  0.34985413  0.65816712    -0.89400
O484        O  0.65837276  0.33009647  0.68372864    -0.92200
C485        C  0.72667542  0.44990393  0.70519861     1.01600
C486        C  0.73378773  0.33383221  0.71306257     1.14500
C487        C  0.76473784  0.41353695  0.65710945     1.05300
O488        O  0.68984198  0.43828901  0.64431389    -0.94400
O489        O  0.66196652  0.38831744  0.63786579    -0.90100
O490        O  0.62486339  0.36558968  0.64699728    -0.83200
C491        C  0.63784956  0.37656561  0.63727563     1.11900
O492        O  0.74542791  0.29618669  0.67236567    -0.96300
Zr493      Zr  0.69964754  0.31938207  0.67154618     1.88900
O494        O  0.61961197  0.31330152  0.66496299    -0.73000
O495        O  0.71756002  0.36847011  0.63641778    -0.52200
O496        O  0.71251970  0.30740861  0.64919239    -0.96900
O497        O  0.70451266  0.27714239  0.68498058    -0.54100
O498        O  0.66113008  0.28952713  0.66508365    -0.73500
C499        C  0.63427957  0.29074013  0.66382935     0.98800
O500        O  0.58786688  0.38592663  0.66537211    -0.62300
O501        O  0.65224307  0.38968528  0.71959680    -0.57100
O502        O  0.59638078  0.34274348  0.68460873    -0.93800
O503        O  0.61875223  0.33273528  0.70368672    -0.92200
O504        O  0.63959268  0.44172919  0.70571068    -0.92600
O505        O  0.62770089  0.45788386  0.68051933    -0.91400
C506        C  0.59689859  0.33138342  0.69601262     1.17700
H507        H  0.69859352  0.40409131  0.70890749     0.33600
H508        H  0.64392484  0.41762619  0.66157419     0.44500
H509        H  0.64854750  0.31311768  0.68605198     0.38000
H510        H  0.74303657  0.35726108  0.66322741     0.34500
H511        H  0.67636286  0.48801588  0.68270565     0.26300
H512        H  0.71979134  0.38310899  0.62958262     0.32200
H513        H  0.70753177  0.28733200  0.64829052     0.38100
H514        H  0.64615150  0.46065626  0.70826583     0.32600
H515        H  0.63278463  0.38433067  0.72190845     0.31500
H516        H  0.65023691  0.33481837  0.72843073     0.33100
H517        H  0.70152875  0.26131360  0.67886486     0.32100
H518        H  0.61143609  0.44504667  0.68117310     0.36100
H519        H  0.57376780  0.37088147  0.66420453     0.28800
H520        H  0.79450380  0.39941242  0.69187587     0.33100
H521        H  0.75905753  0.31153679  0.67381799     0.35900
H522        H  0.66360293  0.38503549  0.72747922     0.28500
H523        H  0.58260046  0.39523787  0.67366823     0.41400
H524        H  0.69649921  0.45222098  0.65078781     0.31500
H525        H  0.70020498  0.47297836  0.67485343     0.39100
H526        H  0.68763093  0.27709528  0.69061928     0.30900
H527        H  0.73701101  0.36355764  0.63912074     0.31000
H528        H  0.79371683  0.36881124  0.68622161     0.31300
Zr529      Zr  0.80856607  0.63604935  0.19097184     2.17500
O530        O  0.75842539  0.63999019  0.19551941    -0.51100
O531        O  0.80545847  0.59615510  0.20666033    -0.74300
O532        O  0.77851862  0.61444107  0.17232550    -0.81100
O533        O  0.83270367  0.69107943  0.21699709    -0.82800
O534        O  0.80624692  0.60578213  0.15469111    -0.78500
O535        O  0.79357301  0.67259510  0.20727018    -0.90100
O536        O  0.84772937  0.57372163  0.20730686    -0.76000
O537        O  0.83868600  0.60399740  0.17978584    -0.85500
O538        O  0.85062104  0.63087468  0.20429633    -0.85200
O539        O  0.81935106  0.65816613  0.17028990    -0.72000
O540        O  0.83265081  0.68044467  0.19304338    -0.84100
Zr541      Zr  0.91273698  0.66459884  0.17469314     2.26400
Zr542      Zr  0.85091950  0.62628765  0.15947800     2.06300
Zr543      Zr  0.87479523  0.67482449  0.20623664     2.10000
Zr544      Zr  0.87983782  0.59816117  0.19301833     1.78800
O545        O  0.87773810  0.71246942  0.22227479    -0.92900
O546        O  0.87332664  0.55362413  0.18170687    -0.40700
O547        O  0.90442486  0.64205158  0.19535550    -0.77400
O548        O  0.89241038  0.61882019  0.17237262    -0.96100
O549        O  0.87187854  0.67124402  0.16158461    -0.89400
O550        O  0.88344538  0.69694991  0.18590321    -0.92200
C551        C  0.82231383  0.57689516  0.21112205     1.01600
C552        C  0.80597398  0.68909566  0.21561416     1.14500
C553        C  0.78252405  0.60488227  0.16040527     1.05300
O554        O  0.86450320  0.57888497  0.15308872    -0.94400
O555        O  0.88469669  0.63557984  0.14243376    -0.90100
O556        O  0.92235192  0.65707225  0.15188260    -0.83200
C557        C  0.90904858  0.64688392  0.14206987     1.11900
O558        O  0.79555239  0.72296614  0.16972137    -0.96300
Zr559      Zr  0.84233586  0.70281453  0.17276466     1.88900
O560        O  0.92179398  0.71101689  0.16600043    -0.73000
O561        O  0.83273867  0.64019763  0.13798565    -0.52200
O562        O  0.82994188  0.71204326  0.14995170    -0.96900
O563        O  0.83398352  0.74390182  0.18636815    -0.54100
O564        O  0.87946532  0.73367030  0.16523200    -0.73500
C565        C  0.90622739  0.73251658  0.16367054     0.98800
O566        O  0.95928808  0.64413852  0.17147075    -0.62300
O567        O  0.88996789  0.64543241  0.22458913    -0.57100
O568        O  0.94555411  0.68714890  0.18930013    -0.93800
O569        O  0.92110806  0.70012766  0.20719605    -0.92200
O570        O  0.90375148  0.58718959  0.21360979    -0.92600
O571        O  0.92502188  0.57452107  0.19037078    -0.91400
C572        C  0.94370765  0.70053807  0.20012789     1.17700
H573        H  0.84634341  0.62506624  0.21312931     0.33600
H574        H  0.90531225  0.60659490  0.16780029     0.44500
H575        H  0.89224034  0.71479955  0.18754599     0.38000
H576        H  0.80241722  0.66091297  0.16511914     0.34500
H577        H  0.88088308  0.53919393  0.18780768     0.26300
H578        H  0.82776635  0.62257770  0.13341028     0.32200
H579        H  0.83208941  0.73259994  0.14883499     0.38100
H580        H  0.90231200  0.56653317  0.21459628     0.32600
H581        H  0.90796696  0.65376240  0.22752007     0.31500
H582        H  0.88248261  0.70307397  0.23067996     0.33100
H583        H  0.84619674  0.75871388  0.18268293     0.32100
H584        H  0.93818749  0.58970386  0.18793066     0.36100
H585        H  0.96668100  0.64017685  0.18038005     0.28800
H586        H  0.75102744  0.62065119  0.19476045     0.33100
H587        H  0.78351894  0.71230571  0.17584987     0.35900
H588        H  0.87654751  0.64978687  0.23169077     0.28500
H589        H  0.97092902  0.65983827  0.16818109     0.41400
H590        H  0.85088995  0.57369498  0.14614211     0.31500
H591        H  0.85276216  0.55042379  0.18166844     0.39100
H592        H  0.84290809  0.73904200  0.19487566     0.30900
H593        H  0.81459777  0.64978714  0.13964850     0.31000
H594        H  0.75037289  0.65026549  0.18790664     0.31300
Zr595      Zr  0.66007335  0.47124917  0.05499679     2.17500
O596        O  0.66121720  0.51990662  0.04748532    -0.51100
O597        O  0.70276262  0.47264435  0.04163522    -0.74300
O598        O  0.67669262  0.50449940  0.07325811    -0.81100
O599        O  0.61399082  0.44204430  0.02657799    -0.82800
O600        O  0.68366068  0.47933246  0.09201435    -0.78500
O601        O  0.62749565  0.48300232  0.03628299    -0.90100
O602        O  0.72539679  0.43070697  0.04344280    -0.76000
O603        O  0.68922890  0.44358715  0.06921344    -0.85500
O604        O  0.66822714  0.42710986  0.04391643    -0.85200
O605        O  0.63353115  0.46466220  0.07476847    -0.72000
O606        O  0.61620637  0.44743175  0.05115274    -0.84100
Zr607      Zr  0.62646291  0.37143151  0.07438589     2.26400
Zr608      Zr  0.66213826  0.43488945  0.08861924     2.06300
Zr609      Zr  0.62471683  0.40263679  0.04073119     2.10000
Zr610      Zr  0.69814640  0.40059638  0.05809373     1.78800
O611        O  0.58506213  0.39556239  0.02590657    -0.92900
O612        O  0.74099369  0.40954906  0.07063088    -0.40700
O613        O  0.65437908  0.37572101  0.05488681    -0.77400
O614        O  0.67212904  0.39162332  0.07791356    -0.96100
O615        O  0.61722149  0.41474119  0.08494482    -0.89400
O616        O  0.59785520  0.39846466  0.05996701    -0.92200
C617        C  0.72274474  0.45557317  0.03859007     1.01600
C618        C  0.61506253  0.46896273  0.02701114     1.14500
C619        C  0.68447657  0.50226748  0.08556602     1.05300
O620        O  0.70620750  0.42093650  0.09916424    -0.94400
O621        O  0.65021562  0.40437636  0.10678211    -0.90100
O622        O  0.62924408  0.36597679  0.09791324    -0.83200
C623        C  0.63812613  0.38046486  0.10763239     1.11900
O624        O  0.57122600  0.49023883  0.06935432    -0.96300
Zr625      Zr  0.58939337  0.44229272  0.07040548     1.88900
O626        O  0.57778166  0.36600251  0.08097067    -0.73000
O627        O  0.64190231  0.45903037  0.10740856    -0.52200
O628        O  0.57236612  0.46149732  0.09098410    -0.96900
O629        O  0.55265394  0.44657720  0.05372124    -0.54100
O630        O  0.55579029  0.40809486  0.07767621    -0.73500
C631        C  0.55598664  0.38205423  0.08090353     0.98800
O632        O  0.64583251  0.32515126  0.07958624    -0.62300
O633        O  0.65602454  0.38537364  0.02370421    -0.57100
O634        O  0.60427739  0.33664828  0.06065911    -0.93800
O635        O  0.60207446  0.35510501  0.04021750    -0.92200
O636        O  0.71189529  0.37175177  0.03951529    -0.92600
O637        O  0.72228203  0.35721722  0.06432813    -0.91400
C638        C  0.59704927  0.33514196  0.04858314     1.17700
H639        H  0.67593212  0.42972869  0.03528496     0.33600
H640        H  0.68304370  0.37962017  0.08368094     0.44500
H641        H  0.58045914  0.38929696  0.05770800     0.38000
H642        H  0.62984998  0.48240725  0.07900029     0.34500
H643        H  0.75646810  0.40319514  0.06488473     0.26300
H644        H  0.65800670  0.46493748  0.11292657     0.32200
H645        H  0.57184752  0.44528598  0.09708442     0.38100
H646        H  0.73212541  0.37570957  0.03821442     0.32600
H647        H  0.65441252  0.36466186  0.02418070     0.31500
H648        H  0.59354150  0.38962729  0.01752062     0.33100
H649        H  0.55890079  0.46179770  0.04777879     0.32100
H650        H  0.70735751  0.34508587  0.06797130     0.36100
H651        H  0.66424945  0.32888275  0.08378999     0.28800
H652        H  0.68049624  0.52650660  0.04947161     0.33100
H653        H  0.58673444  0.50133168  0.06552720     0.35900
H654        H  0.64663326  0.39063035  0.01535996     0.28500
H655        H  0.63399373  0.31766775  0.08673310     0.41400
H656        H  0.71875937  0.43733923  0.09821482     0.31500
H657        H  0.74286386  0.43025836  0.07080042     0.39100
H658        H  0.53614363  0.45445655  0.05832174     0.30900
H659        H  0.63370219  0.47668452  0.10388567     0.31000
H660        H  0.64892834  0.53032936  0.05359500     0.31300
Zr661      Zr  0.88391998  0.98817562  0.05617729     2.17500
O662        O  0.89177002  0.03853537  0.05388463    -0.51100
O663        O  0.84208386  0.99292303  0.04167996    -0.74300
O664        O  0.91155136  0.99970161  0.03574299    -0.81100
O665        O  0.86022878  0.99384987  0.09326051    -0.82800
O666        O  0.92595315  0.95836358  0.02671080    -0.78500
O667        O  0.86555598  0.01975832  0.07459806    -0.90100
O668        O  0.82345783  0.94943440  0.03985423    -0.76000
O669        O  0.87839438  0.94564376  0.04385805    -0.85500
O670        O  0.85141607  0.95887574  0.06780444    -0.85200
O671        O  0.92966971  0.96535269  0.05459580    -0.72000
O672        O  0.90468285  0.97723492  0.07726795    -0.84100
Zr673      Zr  0.91269015  0.88479638  0.07445673     2.26400
Zr674      Zr  0.92320702  0.92192783  0.04266584     2.06300
Zr675      Zr  0.87277734  0.94625762  0.08844312     2.10000
Zr676      Zr  0.84580607  0.91715943  0.05523862     1.78800
O677        O  0.87224776  0.96333069  0.11092326    -0.92900
O678        O  0.84021697  0.88928193  0.03544002    -0.40700
O679        O  0.86617979  0.90445430  0.07611017    -0.77400
O680        O  0.89021377  0.89277744  0.05368830    -0.96100
O681        O  0.94469163  0.91394582  0.06317612    -0.89400
O682        O  0.91883659  0.92672449  0.08688693    -0.92200
C683        C  0.82437540  0.97551415  0.03660646     1.01600
C684        C  0.85887827  0.01706638  0.08699000     1.14500
C685        C  0.92361047  0.98508610  0.02655710     1.05300
O686        O  0.90497054  0.90148335  0.02251157    -0.94400
O687        O  0.94755683  0.87578834  0.04189262    -0.90100
O688        O  0.93684915  0.85162733  0.06045281    -0.83200
C689        C  0.94898899  0.85375488  0.04930582     1.11900
O690        O  0.96493978  0.00470246  0.07664587    -0.96300
Zr691      Zr  0.95016377  0.95585802  0.07540254     1.88900
O692        O  0.96050432  0.87640035  0.08174139    -0.73000
O693        O  0.97138487  0.92551546  0.03476534    -0.52200
O694        O  0.99373515  0.96481380  0.06371017    -0.96900
O695        O  0.96122994  0.96956239  0.09783721    -0.54100
O696        O  0.98260256  0.91872215  0.08178906    -0.73500
C697        C  0.98223496  0.89191598  0.08327686     0.98800
O698        O  0.89196918  0.83833656  0.07692862    -0.62300
O699        O  0.82365660  0.93290134  0.09068126    -0.57100
O700        O  0.90600560  0.87556415  0.09744073    -0.93800
O701        O  0.88239058  0.91272092  0.10617112    -0.92200
O702        O  0.79933585  0.92286850  0.06489263    -0.92600
O703        O  0.81617908  0.87614786  0.05848778    -0.91400
C704        C  0.89516032  0.88892810  0.10704312     1.17700
H705        H  0.83372539  0.96854825  0.06905285     0.33600
H706        H  0.88789556  0.87522665  0.04909545     0.44500
H707        H  0.92740495  0.92346706  0.09527473     0.38000
H708        H  0.94334591  0.97705639  0.05030773     0.34500
H709        H  0.82035310  0.89216365  0.03276035     0.26300
H710        H  0.97018066  0.92148828  0.02526888     0.32200
H711        H  0.00747260  0.96985954  0.07062985     0.38100
H712        H  0.79219120  0.94114750  0.06157473     0.32600
H713        H  0.82426894  0.91385059  0.09461736     0.31500
H714        H  0.85367177  0.95785242  0.11443451     0.33100
H715        H  0.96741784  0.95208552  0.10231560     0.32100
H716        H  0.82751836  0.86344937  0.06414979     0.36100
H717        H  0.87343281  0.84180364  0.08101433     0.28800
H718        H  0.88440720  0.04354074  0.04508062     0.33100
H719        H  0.95055226  0.01519527  0.07152281     0.35900
H720        H  0.81627986  0.94508708  0.09771857     0.28500
H721        H  0.90328598  0.82881880  0.08382614     0.41400
H722        H  0.91186678  0.88182614  0.02249527     0.31500
H723        H  0.85110707  0.89951372  0.02872303     0.39100
H724        H  0.94278682  0.97411102  0.10178819     0.30900
H725        H  0.97621860  0.94569750  0.03528486     0.31000
H726        H  0.91243620  0.04059923  0.05320826     0.31300
Zr727      Zr  0.73722682  0.14668584  0.19125809     2.17500
O728        O  0.78796207  0.15228617  0.19357334    -0.51100
O729        O  0.74426216  0.10816177  0.20736855    -0.74300
O730        O  0.74921689  0.18043764  0.20913765    -0.81100
O731        O  0.74426790  0.11826320  0.15518077    -0.82800
O732        O  0.70793377  0.19069940  0.21938170    -0.78500
O733        O  0.77005192  0.12958409  0.17328450    -0.90100
O734        O  0.70352915  0.08351034  0.20886816    -0.76000
O735        O  0.69613392  0.13618322  0.20396593    -0.85500
O736        O  0.71138555  0.11135348  0.17979270    -0.85200
O737        O  0.70948689  0.18993118  0.19251572    -0.72000
O738        O  0.72424583  0.16624593  0.17019132    -0.84100
Zr739      Zr  0.63113612  0.16332090  0.17358568     2.26400
Zr740      Zr  0.66847856  0.17831234  0.20543542     2.06300
Zr741      Zr  0.69681517  0.13126152  0.15917561     2.10000
Zr742      Zr  0.67086361  0.10089863  0.19244444     1.78800
O743        O  0.71682532  0.14695833  0.13848612    -0.92900
O744        O  0.64347945  0.08477021  0.21110977    -0.40700
O745        O  0.65631030  0.11979806  0.17166440    -0.77400
O746        O  0.64236014  0.14258621  0.19449856    -0.96100
O747        O  0.65724209  0.19817973  0.18479190    -0.89400
O748        O  0.67117953  0.17414885  0.16061710    -0.92200
C749        C  0.72876142  0.08888893  0.21250506     1.01600
C750        C  0.76759516  0.12035008  0.16128905     1.14500
C751        C  0.73461024  0.19324463  0.21801921     1.05300
O752        O  0.65284871  0.15056421  0.22407318    -0.94400
O753        O  0.62074068  0.19970200  0.20550669    -0.90100
O754        O  0.59640022  0.18445094  0.18768369    -0.83200
C755        C  0.59823490  0.19829780  0.19837946     1.11900
O756        O  0.74382764  0.22726014  0.16778772    -0.96300
Zr757      Zr  0.69703159  0.20857780  0.17180700     1.88900
O758        O  0.61682702  0.20971799  0.16621785    -0.73000
O759        O  0.65795084  0.22080244  0.21786927    -0.52200
O760        O  0.70588910  0.25293218  0.18290546    -0.96900
O761        O  0.69960797  0.22229690  0.14878674    -0.54100
O762        O  0.65561356  0.23704434  0.16838527    -0.73500
C763        C  0.62933830  0.23350034  0.16607603     0.98800
O764        O  0.58704630  0.13786437  0.17129383    -0.62300
O765        O  0.69242392  0.08184148  0.15349385    -0.57100
O766        O  0.62188243  0.15310679  0.15074322    -0.93800
O767        O  0.66141618  0.13362339  0.14194413    -0.92200
O768        O  0.68646431  0.05691932  0.18265815    -0.92600
O769        O  0.63032664  0.07204221  0.18697824    -0.91400
C770        C  0.63613768  0.14307712  0.14117790     1.17700
H771        H  0.72301481  0.09488336  0.17853967     0.33600
H772        H  0.62533839  0.13837897  0.19924799     0.44500
H773        H  0.66609877  0.18181593  0.15216194     0.38000
H774        H  0.71922601  0.20598643  0.19595471     0.34500
H775        H  0.64885932  0.06476708  0.21226327     0.26300
H776        H  0.66738409  0.21896709  0.22650193     0.32200
H777        H  0.69195029  0.25351636  0.19007457     0.38100
H778        H  0.68600059  0.04308046  0.18992201     0.32600
H779        H  0.67223735  0.07755492  0.15468054     0.31500
H780        H  0.71561289  0.13050458  0.13260485     0.33100
H781        H  0.71697507  0.21330640  0.14546762     0.32100
H782        H  0.61610808  0.08550800  0.18355231     0.36100
H783        H  0.58273280  0.13104803  0.18023462     0.28800
H784        H  0.79232869  0.14672323  0.20272203     0.33100
H785        H  0.75548266  0.21985748  0.17511087     0.35900
H786        H  0.69524149  0.08130170  0.14389706     0.28500
H787        H  0.57263291  0.15247458  0.16944499     0.41400
H788        H  0.63856791  0.16253660  0.22837922     0.31500
H789        H  0.65184919  0.09431162  0.21878612     0.39100
H790        H  0.70377605  0.24266374  0.14889881     0.30900
H791        H  0.66799302  0.23607011  0.21326846     0.31000
H792        H  0.79129007  0.17280164  0.19322501     0.31300
Zr793      Zr  0.24634948  0.89252862  0.18936522     2.17500
O794        O  0.29656327  0.89413815  0.19432576    -0.51100
O795        O  0.24889060  0.93440191  0.20376187    -0.74300
O796        O  0.27450027  0.91174055  0.17018696    -0.81100
O797        O  0.22875703  0.84965992  0.21937058    -0.82800
O798        O  0.24428033  0.92195731  0.15344194    -0.78500
O799        O  0.26356290  0.85476469  0.20456939    -0.90100
O800        O  0.20581162  0.95495537  0.20503551    -0.76000
O801        O  0.21278789  0.92306717  0.17899213    -0.85500
O802        O  0.20616964  0.89517651  0.20362742    -0.85200
O803        O  0.23435347  0.87061974  0.16877639    -0.72000
O804        O  0.22649628  0.84613262  0.19173879    -0.84100
Zr805      Zr  0.14280672  0.85849402  0.17550231     2.26400
Zr806      Zr  0.19984049  0.90099808  0.15873684     2.06300
Zr807      Zr  0.18635492  0.84903123  0.20605574     2.10000
Zr808      Zr  0.17317989  0.92579941  0.19322318     1.78800
O809        O  0.19647155  0.80258296  0.21506726    -0.92900
O810        O  0.16869373  0.97181639  0.18285287    -0.40700
O811        O  0.15295691  0.88015337  0.19606461    -0.77400
O812        O  0.15991840  0.90541952  0.17272995    -0.96100
O813        O  0.18166157  0.85463273  0.16101598    -0.89400
O814        O  0.17573136  0.82758600  0.18574376    -0.92200
C815        C  0.23192464  0.95348614  0.20810623     1.01600
C816        C  0.25346255  0.84399987  0.21522979     1.14500
C817        C  0.26891959  0.92157714  0.15849676     1.05300
O818        O  0.18764978  0.94842964  0.15162254    -0.94400
O819        O  0.16110231  0.89548113  0.14336639    -0.90100
O820        O  0.12733723  0.86976556  0.15360284    -0.83200
C821        C  0.13722775  0.88308586  0.14374259     1.11900
O822        O  0.26249272  0.80644434  0.16911298    -0.96300
Zr823      Zr  0.21479607  0.82461149  0.17141078     1.88900
O824        O  0.13541282  0.81219295  0.16678059    -0.73000
O825        O  0.21570023  0.88664099  0.13706181    -0.52200
O826        O  0.22650544  0.81985426  0.14831006    -0.96900
O827        O  0.22733655  0.78046491  0.18218577    -0.54100
O828        O  0.17857669  0.79230183  0.16434650    -0.73500
C829        C  0.15161542  0.79182743  0.16364882     0.98800
O830        O  0.09438209  0.87536687  0.17414675    -0.62300
O831        O  0.16771004  0.86715820  0.22655027    -0.57100
O832        O  0.11363672  0.83382595  0.19111239    -0.93800
O833        O  0.14125477  0.82308130  0.20868149    -0.92200
O834        O  0.15366730  0.92892644  0.21517937    -0.92600
O835        O  0.12565690  0.94512156  0.19313995    -0.91400
C836        C  0.11788061  0.82148202  0.20214676     1.17700
H837        H  0.21112153  0.90179222  0.21224908     0.33600
H838        H  0.14566629  0.91695788  0.16855014     0.44500
H839        H  0.16804041  0.80922444  0.18745126     0.38000
H840        H  0.25060525  0.86852080  0.16326537     0.34500
H841        H  0.18823142  0.97753177  0.18090675     0.26300
H842        H  0.21834498  0.90435487  0.13209807     0.32200
H843        H  0.20844100  0.82229439  0.14355101     0.38100
H844        H  0.15517891  0.94901662  0.21755133     0.32600
H845        H  0.14763026  0.86173592  0.22658143     0.31500
H846        H  0.19086667  0.80375220  0.22437545     0.33100
H847        H  0.22073062  0.76555106  0.17618937     0.32100
H848        H  0.11345207  0.92886022  0.19117237     0.36100
H849        H  0.08975972  0.88175548  0.18310209     0.28800
H850        H  0.30222828  0.91382462  0.19267173     0.33100
H851        H  0.27441902  0.82015945  0.17380965     0.35900
H852        H  0.17652075  0.85524338  0.23342605     0.28500
H853        H  0.08282660  0.85835138  0.17279206     0.41400
H854        H  0.20043695  0.96077804  0.15664440     0.31500
H855        H  0.16019312  0.96806895  0.17416009     0.39100
H856        H  0.21457071  0.77929483  0.18979361     0.30900
H857        H  0.23489857  0.87894211  0.13833844     0.31000
H858        H  0.30569001  0.88312184  0.18730363     0.31300
Zr859      Zr  0.39398446  0.04104441  0.05180237     2.17500
O860        O  0.40164368  0.99153679  0.04682925    -0.51100
O861        O  0.35139627  0.03537802  0.03828081    -0.74300
O862        O  0.37515921  0.00934588  0.06990628    -0.81100
O863        O  0.44175780  0.06806362  0.02391900    -0.82800
O864        O  0.36282601  0.03631570  0.08735902    -0.78500
O865        O  0.42525832  0.02781294  0.03323268    -0.90100
O866        O  0.32897360  0.07735498  0.03708263    -0.76000
O867        O  0.36087693  0.07011911  0.06294886    -0.85500
O868        O  0.38797898  0.08312061  0.03880001    -0.85200
O869        O  0.41511307  0.05132803  0.07277089    -0.72000
O870        O  0.43871494  0.06464095  0.04985222    -0.84100
Zr871      Zr  0.42050370  0.14417293  0.06900907     2.26400
Zr872      Zr  0.38221455  0.08188295  0.08356326     2.06300
Zr873      Zr  0.43193916  0.10759096  0.03740946     2.10000
Zr874      Zr  0.35465614  0.11145351  0.05000169     1.78800
O875        O  0.47467305  0.10906557  0.02437470    -0.92900
O876        O  0.30986163  0.10870528  0.06140619    -0.40700
O877        O  0.39848737  0.13648253  0.04812478    -0.77400
O878        O  0.37485332  0.12331917  0.07082629    -0.96100
O879        O  0.42724799  0.10302887  0.08193815    -0.89400
O880        O  0.45335002  0.11546133  0.05789109    -0.92200
C881        C  0.33125844  0.05134326  0.03408514     1.01600
C882        C  0.43900402  0.04140317  0.02429799     1.14500
C883        C  0.36454291  0.01266578  0.08158197     1.05300
O884        O  0.33366262  0.09138824  0.08967649    -0.94400
O885        O  0.38585675  0.11788660  0.10028346    -0.90100
O886        O  0.41044544  0.15431924  0.09149928    -0.83200
C887        C  0.39751290  0.14210982  0.10086554     1.11900
O888        O  0.47758145  0.02616647  0.07196520    -0.96300
Zr889      Zr  0.45966266  0.07417918  0.07059153     1.88900
O890        O  0.46635744  0.15322030  0.07842416    -0.73000
O891        O  0.39793912  0.06289943  0.10462015    -0.52200
O892        O  0.47291191  0.05987893  0.09273437    -0.96900
O893        O  0.50186903  0.07036048  0.05725544    -0.54100
O894        O  0.48958803  0.11123134  0.07886639    -0.73500
C895        C  0.48809530  0.13788434  0.08069257     0.98800
O896        O  0.39644865  0.18921342  0.07088042    -0.62300
O897        O  0.40602521  0.12683164  0.01877572    -0.57100
O898        O  0.44682977  0.17678069  0.05560876    -0.93800
O899        O  0.45767991  0.15309264  0.03707867    -0.92200
O900        O  0.34249840  0.13150986  0.02870038    -0.92600
O901        O  0.33296839  0.15769562  0.05211915    -0.91400
C902        C  0.45951703  0.17486463  0.04459641     1.17700
H903        H  0.38168194  0.07873001  0.03003185     0.33600
H904        H  0.36235444  0.13596164  0.07539103     0.44500
H905        H  0.47126630  0.12439414  0.05653892     0.38000
H906        H  0.41807702  0.03442392  0.07785674     0.34500
H907        H  0.29554561  0.11387412  0.05472569     0.26300
H908        H  0.38061776  0.05731087  0.10928121     0.32200
H909        H  0.45946270  0.06978113  0.09849668     0.38100
H910        H  0.35437248  0.14844238  0.02786107     0.32600
H911        H  0.41650781  0.14396031  0.01630466     0.31500
H912        H  0.46908835  0.11865541  0.01612476     0.33100
H913        H  0.49762368  0.05560690  0.05073266     0.32100
H914        H  0.34899248  0.17090087  0.05237926     0.36100
H915        H  0.39564372  0.19695239  0.06187492     0.28800
H916        H  0.38292802  0.98264480  0.04755582     0.33100
H917        H  0.46315429  0.01468090  0.06748321     0.35900
H918        H  0.40968089  0.11348076  0.01156735     0.28500
H919        H  0.40970632  0.20142360  0.07569464     0.41400
H920        H  0.33260831  0.08587621  0.09902316     0.31500
H921        H  0.30688000  0.08840702  0.06300545     0.39100
H922        H  0.51633046  0.06190451  0.06309474     0.30900
H923        H  0.40761888  0.04499549  0.10255721     0.31000
H924        H  0.41266881  0.98398906  0.05432663     0.31300
Zr925      Zr  0.29562500  0.39632991  0.18778531     2.17500
O926        O  0.24448017  0.39491051  0.18915630    -0.51100
O927        O  0.29205316  0.43782054  0.20219121    -0.74300
O928        O  0.28104471  0.36792710  0.20715041    -0.81100
O929        O  0.29355809  0.42364546  0.15144182    -0.82800
O930        O  0.32205327  0.36654660  0.21770697    -0.78500
O931        O  0.26554794  0.41501411  0.16901849    -0.90100
O932        O  0.33658461  0.45274068  0.20570447    -0.76000
O933        O  0.33722369  0.39664113  0.20124787    -0.85500
O934        O  0.32844323  0.42807348  0.17797364    -0.85200
O935        O  0.31447099  0.34845233  0.18901028    -0.72000
O936        O  0.30695325  0.37701508  0.16664374    -0.84100
Zr937      Zr  0.39820731  0.36295974  0.17196166     2.26400
Zr938      Zr  0.35686105  0.34994527  0.20250689     2.06300
Zr939      Zr  0.34048005  0.40856909  0.15707472     2.10000
Zr940      Zr  0.36925988  0.42839886  0.19171984     1.78800
O941        O  0.32703620  0.40431446  0.13409966    -0.92900
O942        O  0.39041142  0.43074416  0.21352353    -0.40700
O943        O  0.38146325  0.41051186  0.17058511    -0.77400
O944        O  0.38946304  0.38205320  0.19313410    -0.96100
O945        O  0.36621036  0.33116492  0.18159835    -0.89400
O946        O  0.35770613  0.36156575  0.15814865    -0.92200
C947        C  0.31008906  0.45384064  0.20792223     1.01600
C948        C  0.26952051  0.42338556  0.15698192     1.14500
C949        C  0.29625374  0.35957827  0.21694663     1.05300
O950        O  0.38228392  0.35793135  0.22291626    -0.94400
O951        O  0.40092830  0.32129052  0.20360490    -0.90100
O952        O  0.42635015  0.33155786  0.18540513    -0.83200
C953        C  0.42280609  0.31822443  0.19621687     1.11900
O954        O  0.27841981  0.31661393  0.16151955    -0.96300
Zr955      Zr  0.32581094  0.33018811  0.16796450     1.88900
O956        O  0.40528283  0.31767799  0.16199798    -0.73000
O957        O  0.34012788  0.30444877  0.21023165    -0.52200
O958        O  0.30898648  0.28869146  0.17949205    -0.96900
O959        O  0.31860833  0.31965756  0.14479849    -0.54100
O960        O  0.36267564  0.29630313  0.16315949    -0.73500
C961        C  0.38926198  0.29624316  0.16096858     0.98800
O962        O  0.44576979  0.38162044  0.17320325    -0.62300
O963        O  0.35108791  0.45832210  0.15461494    -0.57100
O964        O  0.41208682  0.37485819  0.15010474    -0.93800
O965        O  0.37809194  0.40298892  0.14109273    -0.92200
O966        O  0.36908595  0.47677276  0.18382542    -0.92600
O967        O  0.41611164  0.44835664  0.18957349    -0.91400
C968        C  0.40134129  0.38915190  0.14067826     1.17700
H969        H  0.32034184  0.44664267  0.17704296     0.33600
H970        H  0.40668111  0.38228035  0.19820856     0.44500
H971        H  0.36210546  0.35453225  0.14955857     0.38000
H972        H  0.30106604  0.33546290  0.19264818     0.34500
H973        H  0.40972951  0.42315216  0.21264223     0.26300
H974        H  0.34540636  0.30371011  0.21962163     0.32200
H975        H  0.32460025  0.28342257  0.18548776     0.38100
H976        H  0.37216874  0.48829161  0.19175962     0.32600
H977        H  0.37070724  0.45874705  0.15141834     0.31500
H978        H  0.32873961  0.42350570  0.13040820     0.33100
H979        H  0.33685252  0.31233668  0.14161176     0.32100
H980        H  0.42889643  0.43187641  0.18933266     0.36100
H981        H  0.44475919  0.39993330  0.16857229     0.28800
H982        H  0.23997347  0.40017349  0.19828130     0.33100
H983        H  0.26638950  0.33257971  0.16422938     0.35900
H984        H  0.33958650  0.46456880  0.14701692     0.28500
H985        H  0.45705740  0.36940995  0.16739672     0.41400
H986        H  0.37755714  0.34164796  0.22853873     0.31500
H987        H  0.39300211  0.45105666  0.21518273     0.39100
H988        H  0.31642246  0.33820074  0.14046365     0.30900
H989        H  0.31935262  0.30572842  0.21018527     0.31000
H990        H  0.23964773  0.37474328  0.18851959     0.31300
Zr991      Zr  0.14651762  0.54985571  0.05063571     2.17500
O992        O  0.14460206  0.49894367  0.04821428    -0.51100
O993        O  0.18717588  0.54481565  0.03567416    -0.74300
O994        O  0.11466951  0.53598716  0.03205916    -0.81100
O995        O  0.17521355  0.54577082  0.08702902    -0.82800
O996        O  0.09907664  0.57618364  0.02209560    -0.78500
O997        O  0.16365572  0.51849879  0.06954842    -0.90100
O998        O  0.20537495  0.58823274  0.03212049    -0.76000
O999        O  0.14862484  0.59171756  0.03729297    -0.85500
O1000       O  0.18084539  0.58012662  0.06043521    -0.85200
O1001       O  0.10002047  0.57180990  0.05002516    -0.72000
O1002       O  0.12967878  0.56125096  0.07222712    -0.84100
Zr1003     Zr  0.11974145  0.65282445  0.06820614     2.26400
Zr1004     Zr  0.10323676  0.61469852  0.03714868     2.06300
Zr1005     Zr  0.16321553  0.59321224  0.08159996     2.10000
Zr1006     Zr  0.18304421  0.62118621  0.04699874     1.78800
O1007       O  0.16937819  0.57789981  0.10425777    -0.92900
O1008       O  0.19044003  0.64590335  0.02634906    -0.40700
O1009       O  0.16683780  0.63434839  0.06842467    -0.77400
O1010       O  0.13785508  0.64452315  0.04662907    -0.96100
O1011       O  0.08600259  0.62291069  0.05839910    -0.89400
O1012       O  0.11651456  0.61157653  0.08146696    -0.92200
C1013       C  0.20411411  0.56179105  0.02979240     1.01600
C1014       C  0.17297524  0.52188850  0.08153618     1.14500
C1015       C  0.10107247  0.54942533  0.02287117     1.05300
O1016       O  0.12032909  0.63779639  0.01744308    -0.94400
O1017       O  0.07558381  0.65966263  0.03797530    -0.90100
O1018       O  0.09183032  0.68502698  0.05522034    -0.83200
C1019       C  0.07567040  0.68194461  0.04526542     1.11900
O1020       O  0.07272715  0.53193408  0.07405642    -0.96300
Zr1021     Zr  0.08356249  0.58158705  0.07137805     1.88900
O1022       O  0.07350297  0.66101868  0.07706677    -0.73000
O1023       O  0.05582767  0.61068981  0.02800658    -0.52200
O1024       O  0.03934088  0.56910107  0.06079183    -0.96900
O1025       O  0.07158773  0.57128835  0.09410293    -0.54100
O1026       O  0.05141809  0.61872293  0.07740755    -0.73500
C1027       C  0.05194921  0.64547617  0.07884261     0.98800
O1028       O  0.14029920  0.69933310  0.07065480    -0.62300
O1029       O  0.21264312  0.60612511  0.08262342    -0.57100
O1030       O  0.13008592  0.66417309  0.09064328    -0.93800
O1031       O  0.15590554  0.62771652  0.09886296    -0.92200
O1032       O  0.23017860  0.61634906  0.05621790    -0.92600
O1033       O  0.20550692  0.66693951  0.04839179    -0.91400
C1034       C  0.14306405  0.65137102  0.09993329     1.17700
H1035       H  0.19889565  0.57075747  0.06114960     0.33600
H1036       H  0.13899855  0.66199155  0.04178076     0.44500
H1037       H  0.10936887  0.61532700  0.09012300     0.38000
H1038       H  0.08558781  0.55974340  0.04652884     0.34500
H1039       H  0.20995307  0.64115978  0.02377776     0.26300
H1040       H  0.05807023  0.61167954  0.01837450     0.32200
H1041       H  0.03739836  0.58255362  0.05341772     0.38100
H1042       H  0.24283447  0.61678959  0.04855207     0.32600
H1043       H  0.21336416  0.62176545  0.08897825     0.31500
H1044       H  0.18892722  0.58301165  0.10662284     0.33100
H1045       H  0.05155564  0.56569747  0.09375566     0.32100
H1046       H  0.19016543  0.67998919  0.05086829     0.36100
H1047       H  0.14817062  0.70381320  0.06194121     0.28800
H1048       H  0.14931856  0.49526011  0.03894003     0.33100
H1049       H  0.08038302  0.52288783  0.06610540     0.35900
H1050       H  0.22197744  0.59019577  0.08719223     0.28500
H1051       H  0.12413220  0.71235095  0.07162574     0.41400
H1052       H  0.10347845  0.63980039  0.01176296     0.31500
H1053       H  0.17845293  0.63602800  0.01991061     0.39100
H1054       H  0.07132959  0.58965810  0.09861678     0.30900
H1055       H  0.04983292  0.59115746  0.02980509     0.31000
H1056       H  0.12443521  0.49412487  0.04899191     0.31300
Zr1057     Zr  0.29514773  0.88425234  0.80364843     2.17500
O1058       O  0.24514153  0.88313249  0.79827323    -0.51100
O1059       O  0.28799048  0.92444039  0.78828588    -0.74300
O1060       O  0.26532669  0.90219717  0.82294946    -0.81100
O1061       O  0.31865273  0.83697746  0.77540845    -0.82800
O1062       O  0.29459439  0.91854299  0.83886542    -0.78500
O1063       O  0.28231636  0.84291784  0.78949152    -0.90100
O1064       O  0.32958100  0.94688592  0.78568422    -0.76000
O1065       O  0.32529522  0.91899446  0.81308475    -0.85500
O1066       O  0.33520924  0.88961593  0.78933434    -0.85200
O1067       O  0.30884302  0.86612380  0.82489412    -0.72000
O1068       O  0.32039509  0.83993401  0.80217627    -0.84100
Zr1069     Zr  0.40092417  0.86039468  0.81855235     2.26400
Zr1070     Zr  0.34025897  0.90047544  0.83383855     2.06300
Zr1071     Zr  0.36064687  0.84611411  0.78798378     2.10000
Zr1072     Zr  0.36500091  0.92391325  0.79902725     1.78800
O1073       O  0.36292397  0.80936569  0.77143934    -0.92900
O1074       O  0.36210931  0.97174568  0.80734405    -0.40700
O1075       O  0.39043284  0.88026583  0.79745193    -0.77400
O1076       O  0.37991945  0.90629495  0.81998125    -0.96100
O1077       O  0.36211106  0.85536588  0.83299545    -0.89400
O1078       O  0.37106202  0.82617333  0.80879071    -0.92200
C1079       C  0.30334077  0.94385786  0.78310785     1.01600
C1080       C  0.29403699  0.83096704  0.77944173     1.14500
C1081       C  0.26996468  0.91441808  0.83425476     1.05300
O1082       O  0.35419941  0.94914101  0.83707581    -0.94400
O1083       O  0.37653760  0.89383843  0.85029884    -0.90100
O1084       O  0.41405081  0.87298394  0.84047517    -0.83200
C1085       C  0.40164611  0.88399714  0.85030768     1.11900
O1086       O  0.28424995  0.80418987  0.82356656    -0.96300
Zr1087     Zr  0.33234118  0.82178604  0.82330465     1.88900
O1088       O  0.41280797  0.81627059  0.82906901    -0.73000
O1089       O  0.31996439  0.89631212  0.85566754    -0.52200
O1090       O  0.32258407  0.82101532  0.84671790    -0.96900
O1091       O  0.32476270  0.77217827  0.81861401    -0.54100
O1092       O  0.37111195  0.79364400  0.83150063    -0.73500
C1093       C  0.39787241  0.79533640  0.83266094     0.98800
O1094       O  0.44659187  0.88336986  0.81866290    -0.62300
O1095       O  0.37939062  0.87569531  0.77065281    -0.57100
O1096       O  0.43211325  0.83359454  0.80478885    -0.93800
O1097       O  0.40615435  0.81943788  0.78733516    -0.92200
O1098       O  0.38653680  0.93137908  0.77771330    -0.92600
O1099       O  0.41094328  0.94607970  0.80079947    -0.91400
C1100       C  0.42905124  0.81917965  0.79430524     1.17700
H1101       H  0.32949560  0.89469712  0.78053740     0.33600
H1102       H  0.39314176  0.91913238  0.82391368     0.44500
H1103       H  0.38008277  0.80811361  0.80775390     0.38000
H1104       H  0.29306928  0.86324261  0.83062831     0.34500
H1105       H  0.36726225  0.98377221  0.79979280     0.26300
H1106       H  0.32501129  0.87713332  0.85869469     0.32200
H1107       H  0.30237399  0.81638591  0.84743127     0.38100
H1108       H  0.38579833  0.95197197  0.77631360     0.32600
H1109       H  0.39630782  0.86556196  0.76755720     0.31500
H1110       H  0.36848725  0.81911548  0.76327138     0.33100
H1111       H  0.32448842  0.76275610  0.82728397     0.32100
H1112       H  0.42458403  0.93037318  0.80006156     0.36100
H1113       H  0.45966587  0.86932253  0.82253901     0.28800
H1114       H  0.23803125  0.90225882  0.80021080     0.33100
H1115       H  0.27222849  0.82066143  0.82145158     0.35900
H1116       H  0.36566217  0.87406722  0.76336800     0.28500
H1117       H  0.45209154  0.88461993  0.80933812     0.41400
H1118       H  0.33642178  0.96001450  0.83649370     0.31500
H1119       H  0.34176218  0.97532647  0.80857260     0.39100
H1120       H  0.34233592  0.76548559  0.81447154     0.30900
H1121       H  0.33093882  0.90907064  0.86135820     0.31000
H1122       H  0.23666576  0.87097542  0.80506916     0.31300
Zr1123     Zr  0.13752046  0.02418579  0.94182731     2.17500
O1124       O  0.13332097  0.97501591  0.94825542    -0.51100
O1125       O  0.17898934  0.01757376  0.95651375    -0.74300
O1126       O  0.15551738  0.99309753  0.92311010    -0.81100
O1127       O  0.08845155  0.05140017  0.96945628    -0.82800
O1128       O  0.17430309  0.02132916  0.90737812    -0.78500
O1129       O  0.09668874  0.01296878  0.95681856    -0.90100
O1130       O  0.20448995  0.05786425  0.95659021    -0.76000
O1131       O  0.17162502  0.05266212  0.93092976    -0.85500
O1132       O  0.14498986  0.06538098  0.95513414    -0.85200
O1133       O  0.11868095  0.03574038  0.92037350    -0.72000
O1134       O  0.09382460  0.05028695  0.94309135    -0.84100
Zr1135     Zr  0.11564873  0.12861258  0.92478438     2.26400
Zr1136     Zr  0.15236727  0.06600676  0.91001283     2.06300
Zr1137     Zr  0.10167702  0.09150262  0.95639022     2.10000
Zr1138     Zr  0.17927040  0.09310095  0.94406051     1.78800
O1139       O  0.06320171  0.09502157  0.97198874    -0.92900
O1140       O  0.22512048  0.08811135  0.93374912    -0.40700
O1141       O  0.13618585  0.11944158  0.94587365    -0.77400
O1142       O  0.16083306  0.10652401  0.92303573    -0.96100
O1143       O  0.10818098  0.08903750  0.91116083    -0.89400
O1144       O  0.08140917  0.10039823  0.93557760    -0.92200
C1145       C  0.20040695  0.03237791  0.96013054     1.01600
C1146       C  0.08381941  0.02585563  0.96634199     1.14500
C1147       C  0.16884890  0.99714211  0.91205949     1.05300
O1148       O  0.19950570  0.07624182  0.90216666    -0.94400
O1149       O  0.14641898  0.10149758  0.89294582    -0.90100
O1150       O  0.12392134  0.13847960  0.90196639    -0.83200
C1151       C  0.13516728  0.12600180  0.89217429     1.11900
O1152       O  0.05800383  0.01236361  0.92171260    -0.96300
Zr1153     Zr  0.07508715  0.06057623  0.92185021     1.88900
O1154       O  0.07054123  0.14135690  0.91591070    -0.73000
O1155       O  0.13653232  0.04442110  0.88964476    -0.52200
O1156       O  0.07308528  0.05054808  0.89848337    -0.96900
O1157       O  0.02543046  0.05377351  0.92675292    -0.54100
O1158       O  0.04723904  0.09989346  0.91416105    -0.73500
C1159       C  0.04898763  0.12664711  0.91310013     0.98800
O1160       O  0.13925093  0.17377532  0.92305647    -0.62300
O1161       O  0.13074472  0.10907644  0.97423349    -0.57100
O1162       O  0.09173357  0.16200964  0.93838639    -0.93800
O1163       O  0.07660948  0.13808464  0.95623264    -0.92200
O1164       O  0.18919271  0.11521331  0.96505860    -0.92600
O1165       O  0.20250141  0.13827620  0.94149490    -0.91400
C1166       C  0.07722311  0.16039285  0.94888790     1.17700
H1167       H  0.15092783  0.06048174  0.96391584     0.33600
H1168       H  0.17378987  0.11889406  0.91861748     0.44500
H1169       H  0.06362087  0.10983182  0.93683784     0.38000
H1170       H  0.11526486  0.01916230  0.91517831     0.34500
H1171       H  0.22659507  0.06797086  0.93144668     0.26300
H1172       H  0.15361735  0.03683390  0.88539257     0.32200
H1173       H  0.05386303  0.05625109  0.89574922     0.38100
H1174       H  0.20841086  0.10884297  0.96745664     0.32600
H1175       H  0.12229914  0.12750304  0.97644982     0.31500
H1176       H  0.07052359  0.10690913  0.97916568     0.33100
H1177       H  0.01580219  0.05382984  0.91812124     0.32100
H1178       H  0.18772160  0.15238145  0.94341603     0.36100
H1179       H  0.15634487  0.16999630  0.91784118     0.28800
H1180       H  0.15208220  0.96664074  0.94663729     0.33100
H1181       H  0.06313211  0.00484260  0.91301397     0.35900
H1182       H  0.12620452  0.09679530  0.98177784     0.28500
H1183       H  0.14645261  0.17747096  0.93200191     0.41400
H1184       H  0.20192203  0.06403888  0.89441437     0.31500
H1185       H  0.22320643  0.09786866  0.92520505     0.39100
H1186       H  0.01913112  0.07138719  0.93098458     0.30900
H1187       H  0.12561257  0.02771111  0.89227570     0.31000
H1188       H  0.12089006  0.96660684  0.94152955     0.31300
Zr1189     Zr  0.74166036  0.63997358  0.80220333     2.17500
O1190       O  0.79182191  0.64211161  0.79749952    -0.51100
O1191       O  0.74907954  0.60075109  0.78644062    -0.74300
O1192       O  0.77136719  0.62123923  0.82152763    -0.81100
O1193       O  0.71965200  0.68719134  0.77338175    -0.82800
O1194       O  0.74210697  0.60999820  0.83831147    -0.78500
O1195       O  0.75449904  0.68219651  0.78845844    -0.90100
O1196       O  0.70728665  0.57859491  0.78358525    -0.76000
O1197       O  0.71100194  0.60544818  0.81156119    -0.85500
O1198       O  0.70200134  0.63498852  0.78744785    -0.85200
O1199       O  0.72739961  0.65708090  0.82348960    -0.72000
O1200       O  0.71694390  0.68445044  0.80050927    -0.84100
Zr1201     Zr  0.63510779  0.66473365  0.81558360     2.26400
Zr1202     Zr  0.69470123  0.62333001  0.83211170     2.06300
Zr1203     Zr  0.67742367  0.67898048  0.78567185     2.10000
Zr1204     Zr  0.67194702  0.60066337  0.79701536     1.78800
O1205       O  0.67895504  0.72265614  0.77315033    -0.92900
O1206       O  0.67975323  0.55373229  0.80607223    -0.40700
O1207       O  0.64697628  0.64468489  0.79479129    -0.77400
O1208       O  0.65546007  0.61839366  0.81759653    -0.96100
O1209       O  0.67335808  0.66856421  0.83064514    -0.89400
O1210       O  0.66645306  0.69821121  0.80633324    -0.92200
C1211       C  0.73348419  0.58169419  0.78109746     1.01600
C1212       C  0.74364063  0.69389818  0.77802836     1.14500
C1213       C  0.76668928  0.61161850  0.83336722     1.05300
O1214       O  0.68245484  0.57383461  0.83376051    -0.94400
O1215       O  0.65818268  0.63426818  0.84805191    -0.90100
O1216       O  0.62054487  0.65381160  0.83752071    -0.83200
C1217       C  0.63303497  0.64430956  0.84776663     1.11900
O1218       O  0.75369093  0.71493230  0.82361345    -0.96300
Zr1219     Zr  0.70450058  0.70138454  0.82161953     1.88900
O1220       O  0.62444332  0.70999093  0.82534245    -0.73000
O1221       O  0.70314437  0.62090716  0.85572399    -0.52200
O1222       O  0.70860244  0.69746944  0.84535180    -0.96900
O1223       O  0.71842458  0.75052650  0.81979715    -0.54100
O1224       O  0.66652428  0.73187505  0.82782440    -0.73500
C1225       C  0.63971235  0.73101386  0.82857577     0.98800
O1226       O  0.58857830  0.64353514  0.81523711    -0.62300
O1227       O  0.66167567  0.65429663  0.76611946    -0.57100
O1228       O  0.60429127  0.69034755  0.80071406    -0.93800
O1229       O  0.63110891  0.70367211  0.78345019    -0.92200
O1230       O  0.64816876  0.59273318  0.77614866    -0.92600
O1231       O  0.62863827  0.57388992  0.79906900    -0.91400
C1232       C  0.60783808  0.70393583  0.78999341     1.17700
H1233       H  0.70769039  0.63017862  0.77879243     0.33600
H1234       H  0.64174336  0.60559778  0.82135405     0.44500
H1235       H  0.65787139  0.71631026  0.80488799     0.38000
H1236       H  0.74302207  0.66013977  0.82928493     0.34500
H1237       H  0.67518960  0.54076756  0.79880805     0.26300
H1238       H  0.71050876  0.60179561  0.85760220     0.32200
H1239       H  0.70283619  0.71615692  0.84864970     0.38100
H1240       H  0.66261249  0.59623387  0.76939656     0.32600
H1241       H  0.64820791  0.66738118  0.76182420     0.31500
H1242       H  0.67231951  0.71759869  0.76425816     0.33100
H1243       H  0.71707235  0.75801361  0.82881708     0.32100
H1244       H  0.61347507  0.58823542  0.79891476     0.36100
H1245       H  0.57532130  0.65919302  0.81697067     0.28800
H1246       H  0.79900129  0.62277581  0.79897016     0.33100
H1247       H  0.75855141  0.71171502  0.83294820     0.35900
H1248       H  0.67823066  0.65417561  0.76027438     0.28500
H1249       H  0.58517249  0.63848918  0.80596329     0.41400
H1250       H  0.69995095  0.56449928  0.83684960     0.31500
H1251       H  0.70039795  0.55191421  0.80716692     0.39100
H1252       H  0.70303477  0.76007109  0.81491853     0.30900
H1253       H  0.71895591  0.63380358  0.85756608     0.31000
H1254       H  0.80003565  0.65331237  0.80471392     0.31300
Zr1255     Zr  0.89588862  0.47691226  0.93734850     2.17500
O1256       O  0.89163671  0.52440869  0.94595704    -0.51100
O1257       O  0.85498672  0.47482458  0.95225689    -0.74300
O1258       O  0.87543314  0.51054500  0.91988202    -0.81100
O1259       O  0.95017825  0.44900557  0.96330600    -0.82800
O1260       O  0.86388708  0.48588371  0.90157854    -0.78500
O1261       O  0.93531254  0.48917933  0.95306475    -0.90100
O1262       O  0.83531528  0.43162355  0.95086132    -0.76000
O1263       O  0.86585723  0.44859790  0.92402026    -0.85500
O1264       O  0.89135090  0.43203034  0.94837365    -0.85200
O1265       O  0.91870684  0.47307214  0.91633431    -0.72000
O1266       O  0.94099011  0.45382941  0.93883057    -0.84100
Zr1267     Zr  0.93136856  0.37968357  0.91622874     2.26400
Zr1268     Zr  0.88937104  0.44266280  0.90348963     2.06300
Zr1269     Zr  0.93622018  0.40938554  0.94990313     2.10000
Zr1270     Zr  0.86118030  0.40440394  0.93483977     1.78800
O1271       O  0.97179571  0.40174769  0.96677525    -0.92900
O1272       O  0.81468021  0.41216436  0.92525071    -0.40700
O1273       O  0.90637774  0.38149702  0.93657868    -0.77400
O1274       O  0.88425802  0.39817225  0.91411562    -0.96100
O1275       O  0.93560929  0.42349863  0.90519867    -0.89400
O1276       O  0.96066764  0.40785621  0.92976475    -0.92200
C1277       C  0.83662461  0.45634645  0.95576169     1.01600
C1278       C  0.95110060  0.47570633  0.96153439     1.14500
C1279       C  0.86445948  0.50864194  0.90810327     1.05300
O1280       O  0.84422078  0.42826814  0.89442379    -0.94400
O1281       O  0.90085915  0.41423756  0.88469505    -0.90100
O1282       O  0.92678996  0.37765155  0.89272091    -0.83200
C1283       C  0.91563684  0.39188409  0.88332284     1.11900
O1284       O  0.97828704  0.49907451  0.92483222    -0.96300
Zr1285     Zr  0.96438568  0.45186852  0.91843515     1.88900
O1286       O  0.98029748  0.37561211  0.90953118    -0.73000
O1287       O  0.90443609  0.47052380  0.88466908    -0.52200
O1288       O  0.96752127  0.47375565  0.89687899    -0.96900
O1289       O  0.01244781  0.46117556  0.92569312    -0.54100
O1290       O  0.99751057  0.42003509  0.90849350    -0.73500
C1291       C  0.99984108  0.39342730  0.90718395     0.98800
O1292       O  0.91409635  0.33349673  0.90982314    -0.62300
O1293       O  0.90571946  0.38917941  0.96653686    -0.57100
O1294       O  0.95272458  0.34301629  0.92963177    -0.93800
O1295       O  0.96108596  0.36301984  0.94928668    -0.92200
O1296       O  0.85261318  0.37180036  0.95284535    -0.92600
O1297       O  0.83797906  0.36174288  0.92734886    -0.91400
C1298       C  0.96318884  0.34213185  0.94126500     1.17700
H1299       H  0.88509116  0.43398400  0.95729612     0.33600
H1300       H  0.87324293  0.38591436  0.90859957     0.44500
H1301       H  0.97889884  0.39966736  0.93137998     0.38000
H1302       H  0.92081895  0.49121723  0.91217058     0.34500
H1303       H  0.81170865  0.43275668  0.92552920     0.26300
H1304       H  0.88722425  0.47402275  0.87938268     0.32200
H1305       H  0.97339727  0.45840818  0.89095441     0.38100
H1306       H  0.86373595  0.35476524  0.95074983     0.32600
H1307       H  0.91503306  0.37126512  0.96903542     0.31500
H1308       H  0.96128378  0.39897607  0.97502042     0.33100
H1309       H  0.02282071  0.46617675  0.91763035     0.32100
H1310       H  0.85342691  0.34951782  0.92420382     0.36100
H1311       H  0.90338071  0.32681757  0.91751192     0.28800
H1312       H  0.87168990  0.52975038  0.94451066     0.33100
H1313       H  0.96211931  0.50649108  0.92984248     0.35900
H1314       H  0.90812659  0.40140668  0.97428307     0.28500
H1315       H  0.89947212  0.33711739  0.90306818     0.41400
H1316       H  0.84399002  0.43600146  0.88540274     0.31500
H1317       H  0.81686951  0.40793643  0.91582506     0.39100
H1318       H  0.02038571  0.44274182  0.92838588     0.30900
H1319       H  0.90974493  0.48915850  0.88815464     0.31000
H1320       H  0.90231779  0.53633509  0.93978439     0.31300
Zr1321     Zr  0.80099769  0.13619582  0.80364930     2.17500
O1322       O  0.75027137  0.13704019  0.80007769    -0.51100
O1323       O  0.79787838  0.09764516  0.78787056    -0.74300
O1324       O  0.78824691  0.16784530  0.78474029    -0.81100
O1325       O  0.79417568  0.10507712  0.83921672    -0.82800
O1326       O  0.82841319  0.18721184  0.77661819    -0.78500
O1327       O  0.76825593  0.11617629  0.82110691    -0.90100
O1328       O  0.84241850  0.08264858  0.78375500    -0.76000
O1329       O  0.84379892  0.13593781  0.79114395    -0.85500
O1330       O  0.83132164  0.10100063  0.81302216    -0.85200
O1331       O  0.82192658  0.18255420  0.80462436    -0.72000
O1332       O  0.81020418  0.15092846  0.82579522    -0.84100
Zr1333     Zr  0.90279708  0.16153296  0.82381975     2.26400
Zr1334     Zr  0.86568815  0.18150893  0.79255234     2.06300
Zr1335     Zr  0.84210461  0.11633470  0.83484004     2.10000
Zr1336     Zr  0.87356097  0.10095847  0.80046533     1.78800
O1337       O  0.82581015  0.10474091  0.85681104    -0.92900
O1338       O  0.90201218  0.10306268  0.78071498    -0.40700
O1339       O  0.88452024  0.11458213  0.82258664    -0.77400
O1340       O  0.89565420  0.14614836  0.80175831    -0.96100
O1341       O  0.87296550  0.19620772  0.81433372    -0.89400
O1342       O  0.86036314  0.16283592  0.83622763    -0.92200
C1343       C  0.81592743  0.08316304  0.78140258     1.01600
C1344       C  0.77083701  0.10643265  0.83306246     1.14500
C1345       C  0.80177465  0.18306567  0.77626798     1.05300
O1346       O  0.88792682  0.17211494  0.77158504    -0.94400
O1347       O  0.91297280  0.20460607  0.79305615    -0.90100
O1348       O  0.93587241  0.19038863  0.81158845    -0.83200
C1349       C  0.93484062  0.20425803  0.80073951     1.11900
O1350       O  0.78186990  0.21260262  0.82816433    -0.96300
Zr1351     Zr  0.83056717  0.19683123  0.82649750     1.88900
O1352       O  0.90966736  0.20629536  0.83429983    -0.73000
O1353       O  0.85730494  0.23133244  0.78846061    -0.52200
O1354       O  0.82083880  0.24284621  0.81689013    -0.96900
O1355       O  0.81916617  0.20116884  0.84966597    -0.54100
O1356       O  0.86650334  0.22728675  0.83505424    -0.73500
C1357       C  0.89315077  0.22678476  0.83697538     0.98800
O1358       O  0.94941475  0.14007581  0.82489089    -0.62300
O1359       O  0.85445047  0.06668787  0.83370942    -0.57100
O1360       O  0.91154041  0.14741657  0.84625796    -0.93800
O1361       O  0.87463252  0.12103673  0.85319857    -0.92200
O1362       O  0.87008882  0.05114417  0.80590141    -0.92600
O1363       O  0.91749193  0.07468080  0.80247131    -0.91400
C1364       C  0.89814529  0.13356120  0.85501789     1.17700
H1365       H  0.82226776  0.08287216  0.81302167     0.33600
H1366       H  0.91337646  0.14568776  0.79720914     0.44500
H1367       H  0.86327763  0.16896414  0.84511927     0.38000
H1368       H  0.80961956  0.19685777  0.80107749     0.34500
H1369       H  0.89897421  0.08477455  0.77634736     0.26300
H1370       H  0.87038066  0.24121926  0.79443401     0.32200
H1371       H  0.83946987  0.25022572  0.81434558     0.38100
H1372       H  0.85142385  0.04517656  0.80261951     0.32600
H1373       H  0.86598644  0.06314920  0.84165978     0.31500
H1374       H  0.82907573  0.08426814  0.85782941     0.33100
H1375       H  0.80571437  0.18581254  0.85140642     0.32100
H1376       H  0.92376299  0.07768707  0.81162351     0.36100
H1377       H  0.95980729  0.15104918  0.83154748     0.28800
H1378       H  0.74752796  0.13322248  0.79062601     0.33100
H1379       H  0.77264208  0.20553050  0.82011353     0.35900
H1380       H  0.83657034  0.05673713  0.83538102     0.28500
H1381       H  0.94646827  0.12145692  0.82901994     0.41400
H1382       H  0.88153832  0.18763059  0.76578091     0.31500
H1383       H  0.89221798  0.11686405  0.77500846     0.39100
H1384       H  0.80794360  0.21866382  0.85041467     0.30900
H1385       H  0.86496055  0.23476312  0.77960073     0.31000
H1386       H  0.74465439  0.15692290  0.80123709     0.31300
Zr1387     Zr  0.64033904  0.98445937  0.93704106     2.17500
O1388       O  0.63582145  0.03540805  0.93843592    -0.51100
O1389       O  0.67924777  0.99071073  0.95290073    -0.74300
O1390       O  0.60725776  0.99838369  0.95483513    -0.81100
O1391       O  0.66618928  0.98880782  0.90062437    -0.82800
O1392       O  0.59960669  0.95861900  0.96669547    -0.78500
O1393       O  0.65932643  0.01548077  0.91881264    -0.90100
O1394       O  0.70060845  0.94828055  0.95576861    -0.76000
O1395       O  0.64584736  0.94351087  0.95069140    -0.85500
O1396       O  0.67508325  0.95483783  0.92701022    -0.85200
O1397       O  0.59474059  0.96116026  0.93800997    -0.72000
O1398       O  0.62248429  0.97200911  0.91564830    -0.84100
Zr1399     Zr  0.61709551  0.88030705  0.92071864     2.26400
Zr1400     Zr  0.60144743  0.91964193  0.95160722     2.06300
Zr1401     Zr  0.65657749  0.94094049  0.90606113     2.10000
Zr1402     Zr  0.68030519  0.91447069  0.94075399     1.78800
O1403       O  0.65564049  0.95570864  0.88316711    -0.92900
O1404       O  0.68703332  0.88871491  0.96121703    -0.40700
O1405       O  0.66316674  0.90052161  0.91957508    -0.77400
O1406       O  0.63624014  0.89014295  0.94197060    -0.96100
O1407       O  0.58307232  0.90976902  0.93060384    -0.89400
O1408       O  0.61107353  0.92030295  0.90679662    -0.92200
C1409       C  0.69775334  0.97451062  0.95838101     1.01600
C1410       C  0.66649089  0.01230633  0.90657394     1.14500
C1411       C  0.59596962  0.98485983  0.96450156     1.05300
O1412       O  0.62022183  0.89873566  0.97163278    -0.94400
O1413       O  0.57814830  0.87298760  0.95228989    -0.90100
O1414       O  0.59209401  0.84808755  0.93449593    -0.83200
C1415       C  0.57836657  0.85056227  0.94516241     1.11900
O1416       O  0.56533584  0.99797776  0.91099799    -0.96300
Zr1417     Zr  0.57758117  0.94971635  0.91687172     1.88900
O1418       O  0.57033655  0.87008707  0.91262755    -0.73000
O1419       O  0.55406505  0.92054049  0.96067812    -0.52200
O1420       O  0.53428095  0.96620759  0.92700701    -0.96900
O1421       O  0.56405492  0.95137122  0.89378287    -0.54100
O1422       O  0.54562916  0.91096109  0.91403792    -0.73500
C1423       C  0.54741095  0.88435281  0.91224549     0.98800
O1424       O  0.63802290  0.83351936  0.91926535    -0.62300
O1425       O  0.70682710  0.93294196  0.90344027    -0.57100
O1426       O  0.62842559  0.86748346  0.89870425    -0.93800
O1427       O  0.65171451  0.90430891  0.88958659    -0.92200
O1428       O  0.72801156  0.92126292  0.93280168    -0.92600
O1429       O  0.70495032  0.86981702  0.93825885    -0.91400
C1430       C  0.64038457  0.87991710  0.88913806     1.17700
H1431       H  0.69269171  0.96471057  0.92607007     0.33600
H1432       H  0.63843872  0.87297365  0.94696798     0.44500
H1433       H  0.60382965  0.91546416  0.89825504     0.38000
H1434       H  0.57957077  0.97252543  0.94133090     0.34500
H1435       H  0.70677287  0.89244568  0.96379795     0.26300
H1436       H  0.55540304  0.93008911  0.96925312     0.32200
H1437       H  0.52045951  0.96723934  0.91972308     0.38100
H1438       H  0.72921494  0.91007851  0.92467085     0.32600
H1439       H  0.70821513  0.91900347  0.89629727     0.31500
H1440       H  0.67496203  0.95230186  0.87993010     0.33100
H1441       H  0.57658535  0.96554535  0.88978629     0.32100
H1442       H  0.68986185  0.85600156  0.93656991     0.36100
H1443       H  0.65752637  0.83679708  0.91629050     0.28800
H1444       H  0.63986821  0.04006489  0.94770035     0.33100
H1445       H  0.57383651  0.00952388  0.91801664     0.35900
H1446       H  0.71391977  0.95060673  0.89953978     0.28500
H1447       H  0.64026566  0.82700513  0.92843770     0.41400
H1448       H  0.60704398  0.90481044  0.97855627     0.31500
H1449       H  0.67568935  0.89915606  0.96769474     0.39100
H1450       H  0.54513261  0.96017861  0.89363470     0.30900
H1451       H  0.54334861  0.93363660  0.95496012     0.31000
H1452       H  0.61548225  0.03933605  0.93725085     0.31300
Zr1453     Zr  0.24931114  0.38934328  0.80571083     2.17500
O1454       O  0.29900094  0.39011028  0.79997635    -0.51100
O1455       O  0.24508377  0.43119795  0.79171953    -0.74300
O1456       O  0.25792509  0.36422398  0.78483549    -0.81100
O1457       O  0.26551084  0.40558614  0.84275723    -0.82800
O1458       O  0.21418442  0.36618049  0.77720648    -0.78500
O1459       O  0.28450030  0.40877834  0.82238332    -0.90100
O1460       O  0.20104320  0.44916594  0.79388399    -0.76000
O1461       O  0.20290881  0.39370706  0.79623366    -0.85500
O1462       O  0.22165250  0.41678639  0.82051645    -0.85200
O1463       O  0.22929655  0.34233636  0.80293245    -0.72000
O1464       O  0.24761944  0.36292133  0.82585344    -0.84100
Zr1465     Zr  0.15534530  0.34879691  0.82765104     2.26400
Zr1466     Zr  0.18231304  0.34773472  0.79348481     2.06300
Zr1467     Zr  0.21816985  0.38955056  0.84034356     2.10000
Zr1468     Zr  0.17635588  0.42194825  0.81060228     1.78800
O1469       O  0.24326550  0.37917916  0.86070505    -0.92900
O1470       O  0.14180995  0.43225496  0.79351554    -0.40700
O1471       O  0.17266115  0.39585941  0.83079504    -0.77400
O1472       O  0.15524633  0.37633912  0.80786526    -0.96100
O1473       O  0.18264404  0.32133496  0.81316657    -0.89400
O1474       O  0.20059421  0.34307420  0.83753969    -0.92200
C1475       C  0.22555022  0.44887900  0.78861550     1.01600
C1476       C  0.28567967  0.41180936  0.83511828     1.14500
C1477       C  0.23941447  0.35721811  0.77618905     1.05300
O1478       O  0.15511975  0.36011872  0.77400780    -0.94400
O1479       O  0.13410367  0.32587495  0.79381868    -0.90100
O1480       O  0.11798442  0.32906692  0.81452812    -0.83200
C1481       C  0.11482960  0.32151620  0.80256351     1.11900
O1482       O  0.27720592  0.30320556  0.81997338    -0.96300
Zr1483     Zr  0.22826323  0.31707684  0.82279658     1.88900
O1484       O  0.15298138  0.29864747  0.83283381    -0.73000
O1485       O  0.19266681  0.30244691  0.78347618    -0.52200
O1486       O  0.23798142  0.27666760  0.80892168    -0.96900
O1487       O  0.24890308  0.30388938  0.84389375    -0.54100
O1488       O  0.19643398  0.28071566  0.82909868    -0.73500
C1489       C  0.17064844  0.27814990  0.83234182     0.98800
O1490       O  0.10802782  0.36290619  0.83414383    -0.62300
O1491       O  0.20700738  0.43644547  0.84828690    -0.57100
O1492       O  0.15183041  0.35281890  0.85104779    -0.93800
O1493       O  0.18944766  0.37669410  0.85901571    -0.92200
O1494       O  0.18288445  0.46886756  0.81956708    -0.92600
O1495       O  0.13371805  0.44013760  0.82068037    -0.91400
C1496       C  0.16649487  0.36301279  0.86043667     1.17700
H1497       H  0.23029487  0.43480687  0.82210466     0.33600
H1498       H  0.13629292  0.37861926  0.80454701     0.44500
H1499       H  0.19980712  0.33269394  0.84566603     0.38000
H1500       H  0.24052718  0.32975501  0.79771581     0.34500
H1501       H  0.14334399  0.45276351  0.79200261     0.26300
H1502       H  0.21322311  0.29971691  0.78443212     0.32200
H1503       H  0.21929151  0.26935597  0.80635660     0.38100
H1504       H  0.18885463  0.46590466  0.82876484     0.32600
H1505       H  0.19250891  0.43351403  0.85507482     0.31500
H1506       H  0.24128183  0.39635093  0.86608742     0.33100
H1507       H  0.23360881  0.29464316  0.84881769     0.32100
H1508       H  0.12124345  0.42360407  0.82141559     0.36100
H1509       H  0.10186784  0.34852943  0.84054453     0.28800
H1510       H  0.29965031  0.39795363  0.79098213     0.33100
H1511       H  0.28790139  0.32093630  0.82069167     0.35900
H1512       H  0.22396166  0.44227351  0.85323656     0.28500
H1513       H  0.11049431  0.38026903  0.83933389     0.41400
H1514       H  0.15352874  0.34233915  0.76906023     0.31500
H1515       H  0.14973065  0.42365500  0.78551618     0.39100
H1516       H  0.25202642  0.32190624  0.84848896     0.30900
H1517       H  0.18438434  0.28845283  0.78951017     0.31000
H1518       H  0.30455787  0.37014053  0.79905517     0.31300
Zr1519     Zr  0.40902647  0.53512202  0.94049997     2.17500
O1520       O  0.41332787  0.48408973  0.94157614    -0.51100
O1521       O  0.37021257  0.52766843  0.95637376    -0.74300
O1522       O  0.44470414  0.51974475  0.95741396    -0.81100
O1523       O  0.37975553  0.53318148  0.90425304    -0.82800
O1524       O  0.46166831  0.55904183  0.96745867    -0.78500
O1525       O  0.39278700  0.50494916  0.92134281    -0.90100
O1526       O  0.35027026  0.57030221  0.96039338    -0.76000
O1527       O  0.40444085  0.57525084  0.95460408    -0.85500
O1528       O  0.37281807  0.56491519  0.93139940    -0.85200
O1529       O  0.45393398  0.55953482  0.94088090    -0.72000
O1530       O  0.42386559  0.54955186  0.91894047    -0.84100
Zr1531     Zr  0.43000391  0.64084378  0.92462811     2.26400
Zr1532     Zr  0.44837762  0.60013542  0.95493214     2.06300
Zr1533     Zr  0.38853449  0.58091010  0.91028387     2.10000
Zr1534     Zr  0.36878947  0.60469531  0.94544851     1.78800
O1535       O  0.38404201  0.56700580  0.88740408    -0.92900
O1536       O  0.36651762  0.62643894  0.96704302    -0.40700
O1537       O  0.38382234  0.62061299  0.92423567    -0.77400
O1538       O  0.41252643  0.62986245  0.94599865    -0.96100
O1539       O  0.46477735  0.61092838  0.93375976    -0.89400
O1540       O  0.43423167  0.60136443  0.91043182    -0.92200
C1541       C  0.35303102  0.54397034  0.96257864     1.01600
C1542       C  0.38324886  0.50897078  0.90944115     1.14500
C1543       C  0.46079688  0.53237421  0.96586246     1.05300
O1544       O  0.42783368  0.61442257  0.97568025    -0.94400
O1545       O  0.47106918  0.64722078  0.95553868    -0.90100
O1546       O  0.45515154  0.67332543  0.93829420    -0.83200
C1547       C  0.46985081  0.67022772  0.94874380     1.11900
O1548       O  0.47865718  0.52224175  0.91536830    -0.96300
Zr1549     Zr  0.46880097  0.57164331  0.91965302     1.88900
O1550       O  0.47709345  0.65091664  0.91677226    -0.73000
O1551       O  0.49553720  0.60495922  0.96417008    -0.52200
O1552       O  0.51385222  0.55712304  0.92903138    -0.96900
O1553       O  0.47926002  0.56889327  0.89635407    -0.54100
O1554       O  0.50083854  0.60950754  0.91536774    -0.73500
C1555       C  0.49950305  0.63637277  0.91478763     0.98800
O1556       O  0.40765166  0.68707170  0.92418313    -0.62300
O1557       O  0.33808316  0.59023190  0.90987998    -0.57100
O1558       O  0.41841808  0.65337041  0.90249174    -0.93800
O1559       O  0.39289971  0.61777113  0.89364569    -0.92200
O1560       O  0.32085155  0.59742482  0.93761080    -0.92600
O1561       O  0.33921402  0.64667135  0.94445177    -0.91400
C1562       C  0.40538731  0.64161528  0.89300875     1.17700
H1563       H  0.35525802  0.55486245  0.93069670     0.33600
H1564       H  0.41063498  0.64679819  0.95109374     0.44500
H1565       H  0.44094661  0.60613170  0.90181392     0.38000
H1566       H  0.46981526  0.54816477  0.94349049     0.34500
H1567       H  0.36864544  0.64689697  0.96559460     0.26300
H1568       H  0.49404086  0.59978836  0.97354511     0.32200
H1569       H  0.52498291  0.55042776  0.92148431     0.38100
H1570       H  0.30938794  0.59549943  0.94563075     0.32600
H1571       H  0.33634619  0.60990614  0.90676832     0.31500
H1572       H  0.36471311  0.57248233  0.88472997     0.33100
H1573       H  0.46645948  0.55429841  0.89292010     0.32100
H1574       H  0.34224167  0.65451088  0.93557474     0.36100
H1575       H  0.41865790  0.69826774  0.91783887     0.28800
H1576       H  0.40955547  0.47902663  0.95081413     0.33100
H1577       H  0.47429206  0.51251822  0.92370814     0.35900
H1578       H  0.33071445  0.57881686  0.90254852     0.28500
H1579       H  0.38920890  0.68414614  0.91984875     0.41400
H1580       H  0.42560186  0.63506629  0.97492526     0.31500
H1581       H  0.34678278  0.62410334  0.96988685     0.39100
H1582       H  0.49823920  0.56028199  0.89595665     0.30900
H1583       H  0.50679816  0.58974787  0.96015652     0.31000
H1584       H  0.43360348  0.48007219  0.94032606     0.31300
Zr1585     Zr  0.13673320  0.49012729  0.43578606     2.17500
O1586       O  0.13247055  0.54062662  0.43941235    -0.51100
O1587       O  0.17862765  0.48963010  0.44983552    -0.74300
O1588       O  0.11168955  0.49960800  0.45701750    -0.81100
O1589       O  0.15734327  0.50189406  0.39886845    -0.82800
O1590       O  0.09515165  0.45785198  0.46482888    -0.78500
O1591       O  0.15719493  0.52388860  0.41862506    -0.90100
O1592       O  0.19924836  0.44685047  0.44893834    -0.76000
O1593       O  0.14286355  0.44524684  0.44644450    -0.85500
O1594       O  0.16694168  0.46231969  0.42228904    -0.85200
O1595       O  0.09100929  0.46805565  0.43801774    -0.72000
O1596       O  0.11279273  0.48474975  0.41509351    -0.84100
Zr1597     Zr  0.10330622  0.39242245  0.41498326     2.26400
Zr1598     Zr  0.09789080  0.42245402  0.44834434     2.06300
Zr1599     Zr  0.14232371  0.45488684  0.40199983     2.10000
Zr1600     Zr  0.17357502  0.41836449  0.43313320     1.78800
O1601       O  0.13654946  0.47764327  0.38073394    -0.92900
O1602       O  0.18579111  0.38771047  0.45153185    -0.40700
O1603       O  0.14990364  0.41084377  0.41253718    -0.77400
O1604       O  0.12882423  0.39529262  0.43523998    -0.96100
O1605       O  0.07320976  0.41976096  0.42827525    -0.89400
O1606       O  0.09615518  0.43637328  0.40416974    -0.92200
C1607       C  0.19750586  0.47188267  0.45357036     1.01600
C1608       C  0.16183281  0.52330079  0.40597122     1.14500
C1609       C  0.09905884  0.48434196  0.46579252     1.05300
O1610       O  0.12172709  0.39883732  0.46650565    -0.94400
O1611       O  0.07476892  0.37523017  0.44819282    -0.90100
O1612       O  0.08153038  0.35635110  0.42811213    -0.83200
C1613       C  0.07168918  0.35514687  0.43977068     1.11900
O1614       O  0.05377783  0.51318454  0.42084897    -0.96300
Zr1615     Zr  0.06736906  0.46420262  0.41772614     1.88900
O1616       O  0.05438081  0.38803950  0.40865571    -0.73000
O1617       O  0.05286991  0.42546399  0.45957989    -0.52200
O1618       O  0.02472807  0.47109440  0.43047235    -0.96900
O1619       O  0.05522671  0.48347371  0.39626812    -0.54100
O1620       O  0.03315799  0.43093222  0.41002877    -0.73500
C1621       C  0.03307691  0.40454395  0.40768303     0.98800
O1622       O  0.12018873  0.34528602  0.40986730    -0.62300
O1623       O  0.19100554  0.44313858  0.39703276    -0.57100
O1624       O  0.10899769  0.38698425  0.39176885    -0.93800
O1625       O  0.13112035  0.42498248  0.38338047    -0.92200
O1626       O  0.21857150  0.42533857  0.42227431    -0.92600
O1627       O  0.19469545  0.37421886  0.42611874    -0.91400
C1628       C  0.11862853  0.40130981  0.38215211     1.17700
H1629       H  0.18462756  0.47175064  0.42088402     0.33600
H1630       H  0.13145350  0.37680020  0.43900593     0.44500
H1631       H  0.08648587  0.43459324  0.39587681     0.38000
H1632       H  0.07798201  0.47927123  0.44299081     0.34500
H1633       H  0.20658771  0.38633599  0.45136952     0.26300
H1634       H  0.03911767  0.41661031  0.45357695     0.32200
H1635       H  0.00998110  0.47585599  0.42392523     0.38100
H1636       H  0.22665608  0.44244706  0.42625849     0.32600
H1637       H  0.19004874  0.42497401  0.39237270     0.31500
H1638       H  0.15539973  0.47701863  0.37664988     0.33100
H1639       H  0.06759533  0.50000363  0.39521464     0.32100
H1640       H  0.17919888  0.36042115  0.42657895     0.36100
H1641       H  0.10713943  0.33807769  0.40308341     0.28800
H1642       H  0.14649733  0.54489509  0.44631608     0.33100
H1643       H  0.06746865  0.52050471  0.42732283     0.35900
H1644       H  0.19657748  0.45691159  0.39024268     0.28500
H1645       H  0.13823446  0.34813969  0.40525805     0.41400
H1646       H  0.10710908  0.38694632  0.47056023     0.31500
H1647       H  0.18165968  0.39889767  0.45945380     0.39100
H1648       H  0.03612454  0.49150736  0.39733723     0.30900
H1649       H  0.05456805  0.41225696  0.46706756     0.31000
H1650       H  0.11397672  0.54372730  0.44358771     0.31300
Zr1651     Zr  0.29893003  0.64269011  0.30261796     2.17500
O1652       O  0.24803360  0.64842495  0.30127931    -0.51100
O1653       O  0.29634939  0.60047464  0.28896572    -0.74300
O1654       O  0.28538507  0.66929606  0.28233568    -0.81100
O1655       O  0.29440555  0.61954147  0.33957255    -0.82800
O1656       O  0.32642610  0.66688219  0.27213353    -0.78500
O1657       O  0.26820908  0.62329788  0.32086979    -0.90100
O1658       O  0.34008603  0.58113691  0.28809289    -0.76000
O1659       O  0.34149690  0.63722391  0.29019953    -0.85500
O1660       O  0.33010879  0.61252016  0.31486053    -0.85200
O1661       O  0.31949910  0.68917445  0.29949165    -0.72000
O1662       O  0.30877382  0.66617869  0.32296071    -0.84100
Zr1663     Zr  0.40092355  0.67613941  0.31914419     2.26400
Zr1664     Zr  0.36250246  0.68275033  0.28708708     2.06300
Zr1665     Zr  0.34083046  0.63652614  0.33488674     2.10000
Zr1666     Zr  0.37180517  0.60693822  0.30220865     1.78800
O1667       O  0.32189624  0.64836626  0.35631359    -0.92900
O1668       O  0.39886897  0.60020273  0.28225776    -0.40700
O1669       O  0.38267087  0.62966638  0.32252584    -0.77400
O1670       O  0.39345496  0.65197079  0.29890257    -0.96100
O1671       O  0.37031035  0.70613554  0.30716063    -0.89400
O1672       O  0.35951080  0.68249021  0.33192488    -0.92200
C1673       C  0.31405560  0.58204993  0.28476780     1.01600
C1674       C  0.27127828  0.61690101  0.33326617     1.14500
C1675       C  0.30127082  0.67622967  0.27262960     1.05300
O1676       O  0.38511741  0.67118701  0.26643119    -0.94400
O1677       O  0.40861339  0.70713761  0.28517745    -0.90100
O1678       O  0.43183185  0.70100919  0.30447707    -0.83200
C1679       C  0.43007564  0.71102634  0.29281871     1.11900
O1680       O  0.27952241  0.72406356  0.32299351    -0.96300
Zr1681     Zr  0.32875190  0.71168282  0.31970847     1.88900
O1682       O  0.40776340  0.72442283  0.32587273    -0.73000
O1683       O  0.34802892  0.72855504  0.27865501    -0.52200
O1684       O  0.31560701  0.75185432  0.30606028    -0.96900
O1685       O  0.31688737  0.72726027  0.34172955    -0.54100
O1686       O  0.36482561  0.74557057  0.32460991    -0.73500
C1687       C  0.39152890  0.74601321  0.32641245     0.98800
O1688       O  0.44832512  0.65675054  0.32109181    -0.62300
O1689       O  0.35270178  0.58915607  0.34222093    -0.57100
O1690       O  0.41378642  0.66850335  0.34168861    -0.93800
O1691       O  0.37679160  0.64614521  0.35118461    -0.92200
O1692       O  0.36939206  0.55974087  0.31147583    -0.92600
O1693       O  0.41664838  0.58430005  0.30727709    -0.91400
C1694       C  0.40112407  0.65762770  0.35149067     1.17700
H1695       H  0.32138044  0.59458698  0.31657334     0.33600
H1696       H  0.41103961  0.64980701  0.29429390     0.44500
H1697       H  0.36351126  0.69168775  0.34013460     0.38000
H1698       H  0.30718412  0.70233922  0.29505923     0.34500
H1699       H  0.39335447  0.58142184  0.27902253     0.26300
H1700       H  0.35383698  0.74193454  0.28554601     0.32200
H1701       H  0.30797864  0.76593775  0.31222291     0.38100
H1702       H  0.36327317  0.56234193  0.32063433     0.32600
H1703       H  0.37218690  0.59049852  0.34563263     0.31500
H1704       H  0.32638068  0.63195730  0.36196852     0.33100
H1705       H  0.33467289  0.73419405  0.34559981     0.32100
H1706       H  0.43016144  0.59998612  0.30801862     0.36100
H1707       H  0.46051495  0.67301456  0.32308300     0.28800
H1708       H  0.24271377  0.64279547  0.29227979     0.33100
H1709       H  0.26887076  0.70914887  0.31843304     0.35900
H1710       H  0.34105024  0.58612183  0.35010513     0.28500
H1711       H  0.45352380  0.65112896  0.31209126     0.41400
H1712       H  0.38349640  0.68847917  0.26105327     0.31500
H1713       H  0.39042416  0.61354382  0.27586981     0.39100
H1714       H  0.31285157  0.70972892  0.34661535     0.30900
H1715       H  0.36100752  0.73235744  0.27131525     0.31000
H1716       H  0.24482674  0.66898934  0.30155934     0.31300
Zr1717     Zr  0.88174449  0.04755351  0.44119030     2.17500
O1718       O  0.88051238  0.99685309  0.44454420    -0.51100
O1719       O  0.84373739  0.04742404  0.45766189    -0.74300
O1720       O  0.91319492  0.03371936  0.46013264    -0.81100
O1721       O  0.85575355  0.04251671  0.40449735    -0.82800
O1722       O  0.93463596  0.07330202  0.46758988    -0.78500
O1723       O  0.86293246  0.01575028  0.42274945    -0.90100
O1724       O  0.83343217  0.09304685  0.46189891    -0.76000
O1725       O  0.88442496  0.09067947  0.45336930    -0.85500
O1726       O  0.84781757  0.07971263  0.43203175    -0.85200
O1727       O  0.92933558  0.06559086  0.43974304    -0.72000
O1728       O  0.89573373  0.05701378  0.41906338    -0.84100
Zr1729     Zr  0.91256375  0.14796594  0.42061360     2.26400
Zr1730     Zr  0.93107988  0.10958654  0.45150150     2.06300
Zr1731     Zr  0.86278427  0.09055615  0.41020782     2.10000
Zr1732     Zr  0.85061796  0.12220981  0.44432926     1.78800
O1733       O  0.83831540  0.07670457  0.39019611    -0.92900
O1734       O  0.85332663  0.15321212  0.46327779    -0.40700
O1735       O  0.86437265  0.13314622  0.42224517    -0.77400
O1736       O  0.89708515  0.14146730  0.44267582    -0.96100
O1737       O  0.94598772  0.11611698  0.42971572    -0.89400
O1738       O  0.91052672  0.10560217  0.40823888    -0.92200
C1739       C  0.83196451  0.06681523  0.46458158     1.01600
C1740       C  0.85593131  0.01879954  0.41035332     1.14500
C1741       C  0.92911735  0.04709271  0.46840836     1.05300
O1742       O  0.92544749  0.13190294  0.47275413    -0.94400
O1743       O  0.95576849  0.15533529  0.45152842    -0.90100
O1744       O  0.94021669  0.18013155  0.43379185    -0.83200
C1745       C  0.95494236  0.17771809  0.44431975     1.11900
O1746       O  0.95209772  0.02342948  0.41529239    -0.96300
Zr1747     Zr  0.94290172  0.07356309  0.41768998     1.88900
O1748       O  0.95717574  0.15119828  0.40952303    -0.73000
O1749       O  0.98060983  0.09753837  0.45452548    -0.52200
O1750       O  0.98828930  0.05844276  0.42651575    -0.96900
O1751       O  0.94535162  0.06212048  0.39446041    -0.54100
O1752       O  0.97581228  0.10704833  0.40903094    -0.73500
C1753       C  0.97670677  0.13355127  0.40687600     0.98800
O1754       O  0.89984070  0.19753083  0.41862477    -0.62300
O1755       O  0.81504762  0.10739019  0.41406769    -0.57100
O1756       O  0.89704003  0.15811304  0.39854838    -0.93800
O1757       O  0.87112384  0.12100600  0.39149477    -0.92200
O1758       O  0.80026131  0.11608879  0.44077415    -0.92600
O1759       O  0.82373397  0.16525027  0.44045001    -0.91400
C1760       C  0.88346174  0.14459498  0.38974925     1.17700
H1761       H  0.82923438  0.07158462  0.43219289     0.33600
H1762       H  0.89793400  0.15912002  0.44727454     0.44500
H1763       H  0.91683906  0.10803883  0.39934463     0.38000
H1764       H  0.94301583  0.05247141  0.44323856     0.34500
H1765       H  0.86987132  0.14640573  0.46832197     0.26300
H1766       H  0.99100243  0.11130291  0.44912348     0.32200
H1767       H  0.99911421  0.07595265  0.42778385     0.38100
H1768       H  0.79144983  0.12110234  0.44922358     0.32600
H1769       H  0.81303178  0.12433288  0.40846951     0.31500
H1770       H  0.82483724  0.09208550  0.38818978     0.33100
H1771       H  0.93144814  0.04693856  0.39316620     0.32100
H1772       H  0.82084263  0.16610766  0.43084140     0.36100
H1773       H  0.90877245  0.20422670  0.41045008     0.28800
H1774       H  0.87517835  0.99422741  0.45383032     0.33100
H1775       H  0.93443489  0.01422234  0.41803820     0.35900
H1776       H  0.80258103  0.09326476  0.40998739     0.28500
H1777       H  0.87939986  0.19770949  0.41672891     0.41400
H1778       H  0.94311878  0.12756341  0.47755195     0.31500
H1779       H  0.85898079  0.17186525  0.45989599     0.39100
H1780       H  0.96390841  0.05293320  0.39332239     0.30900
H1781       H  0.98496723  0.10281763  0.46368454     0.31000
H1782       H  0.90040251  0.99067263  0.44408423     0.31300
Zr1783     Zr  0.73932041  0.88786896  0.30331209     2.17500
O1784       O  0.79034400  0.89125732  0.30178320    -0.51100
O1785       O  0.73919669  0.92926712  0.28865095    -0.74300
O1786       O  0.75724173  0.85814569  0.28473808    -0.81100
O1787       O  0.73730090  0.91325391  0.34023857    -0.82800
O1788       O  0.71756308  0.85695324  0.27333570    -0.78500
O1789       O  0.76637650  0.90877865  0.32266945    -0.90100
O1790       O  0.69403990  0.94346333  0.28518977    -0.76000
O1791       O  0.69799155  0.88753828  0.28957090    -0.85500
O1792       O  0.70422256  0.91687068  0.31356328    -0.85200
O1793       O  0.72303685  0.83932485  0.30144620    -0.72000
O1794       O  0.72878872  0.86716499  0.32430100    -0.84100
Zr1795     Zr  0.63885390  0.84745568  0.31809724     2.26400
Zr1796     Zr  0.68119503  0.84000693  0.28759073     2.06300
Zr1797     Zr  0.69212747  0.89506243  0.33409838     2.10000
Zr1798     Zr  0.66386551  0.91674520  0.29953273     1.78800
O1799       O  0.70682130  0.89573646  0.35701282    -0.92900
O1800       O  0.63981729  0.92101278  0.27846687    -0.40700
O1801       O  0.65178476  0.89591705  0.32020049    -0.77400
O1802       O  0.64691242  0.86962382  0.29741185    -0.96100
O1803       O  0.67346428  0.81847517  0.30823462    -0.89400
O1804       O  0.67867904  0.84703912  0.33236086    -0.92200
C1805       C  0.72050257  0.94504669  0.28304396     1.01600
C1806       C  0.76122851  0.91612650  0.33477916     1.14500
C1807       C  0.74285490  0.84870713  0.27490341     1.05300
O1808       O  0.65975643  0.84902982  0.26625519    -0.94400
O1809       O  0.63547156  0.81554157  0.28442448    -0.90100
O1810       O  0.60947395  0.82225237  0.30280060    -0.83200
C1811       C  0.61275677  0.81258154  0.29121385     1.11900
O1812       O  0.76349527  0.80689151  0.32273497    -0.96300
Zr1813     Zr  0.71381476  0.81960496  0.32225375     1.88900
O1814       O  0.63684115  0.80018476  0.32684551    -0.73000
O1815       O  0.69795678  0.79427857  0.28017345    -0.52200
O1816       O  0.72801838  0.77413770  0.31355625    -0.96900
O1817       O  0.73146493  0.81805786  0.34475220    -0.54100
O1818       O  0.68153199  0.78474648  0.32998855    -0.73500
C1819       C  0.65491691  0.78164369  0.33055122     0.98800
O1820       O  0.58906544  0.86014273  0.31840002    -0.62300
O1821       O  0.67293226  0.94238661  0.33604374    -0.57100
O1822       O  0.62311807  0.85730899  0.33991491    -0.93800
O1823       O  0.65594376  0.88375061  0.35030426    -0.92200
O1824       O  0.66189012  0.96411638  0.30842556    -0.92600
O1825       O  0.61540340  0.93290411  0.30153065    -0.91400
C1826       C  0.63293900  0.86962018  0.35004094     1.17700
H1827       H  0.71118852  0.93573229  0.31486931     0.33600
H1828       H  0.62979645  0.86992527  0.29220048     0.44500
H1829       H  0.67443430  0.83867414  0.34072492     0.38000
H1830       H  0.73680906  0.82631221  0.29811354     0.34500
H1831       H  0.63989802  0.94138314  0.27643401     0.26300
H1832       H  0.71632508  0.79131770  0.28458897     0.32200
H1833       H  0.71115913  0.76702155  0.30892378     0.38100
H1834       H  0.65672787  0.97619857  0.30085263     0.32600
H1835       H  0.65302975  0.93959270  0.33853339     0.31500
H1836       H  0.69941437  0.91365803  0.36053191     0.33100
H1837       H  0.73094558  0.79796763  0.34726621     0.32100
H1838       H  0.60531025  0.91673702  0.30538819     0.36100
H1839       H  0.58030791  0.84742905  0.32489158     0.28800
H1840       H  0.79419153  0.89581566  0.29249377     0.33100
H1841       H  0.77326310  0.82379627  0.31941988     0.35900
H1842       H  0.68192696  0.95011329  0.34401114     0.28500
H1843       H  0.58826524  0.87901817  0.32243674     0.41400
H1844       H  0.66276490  0.83151042  0.26124983     0.31500
H1845       H  0.65299461  0.91263844  0.27207865     0.39100
H1846       H  0.71699010  0.82715099  0.35024426     0.30900
H1847       H  0.68528400  0.78056129  0.28440089     0.31000
H1848       H  0.79731787  0.87176709  0.30299263     0.31300
Zr1849     Zr  0.38767405  0.98704787  0.44016225     2.17500
O1850       O  0.39306093  0.03631189  0.44611774    -0.51100
O1851       O  0.34871965  0.99363624  0.45603836    -0.74300
O1852       O  0.36859692  0.01857991  0.42166954    -0.81100
O1853       O  0.44653671  0.96052683  0.46380700    -0.82800
O1854       O  0.35272094  0.99131934  0.40492091    -0.78500
O1855       O  0.42905197  0.00050365  0.45440334    -0.90100
O1856       O  0.32502622  0.95249034  0.45762914    -0.76000
O1857       O  0.35239471  0.95819753  0.43016200    -0.85500
O1858       O  0.38250442  0.94595686  0.45399477    -0.85200
O1859       O  0.40490063  0.97464892  0.41865578    -0.72000
O1860       O  0.43104001  0.96076323  0.44091437    -0.84100
Zr1861     Zr  0.40848781  0.88164678  0.42314022     2.26400
Zr1862     Zr  0.36992984  0.94462921  0.40901985     2.06300
Zr1863     Zr  0.42565996  0.91953198  0.45432919     2.10000
Zr1864     Zr  0.34732058  0.91776945  0.44392019     1.78800
O1865       O  0.46705397  0.91337736  0.46825492    -0.92900
O1866       O  0.29867488  0.92209108  0.43646978    -0.40700
O1867       O  0.39040571  0.89114860  0.44459694    -0.77400
O1868       O  0.36315327  0.90419930  0.42247837    -0.96100
O1869       O  0.41447222  0.92212223  0.40981883    -0.89400
O1870       O  0.44372760  0.90949673  0.43329417    -0.92200
C1871       C  0.32898194  0.97817002  0.46082998     1.01600
C1872       C  0.44651102  0.98719028  0.46214427     1.14500
C1873       C  0.35666009  0.01525457  0.41019020     1.05300
O1874       O  0.32113094  0.93378820  0.40382342    -0.94400
O1875       O  0.37596362  0.90951103  0.39190743    -0.90100
O1876       O  0.39622197  0.87040778  0.40083609    -0.83200
C1877       C  0.38569898  0.88433603  0.39121177     1.11900
O1878       O  0.46620744  0.99837665  0.41885822    -0.96300
Zr1879     Zr  0.44903704  0.95025132  0.41997649     1.88900
O1880       O  0.45227160  0.87127752  0.41196726    -0.73000
O1881       O  0.38058975  0.96126791  0.38693866    -0.52200
O1882       O  0.45800153  0.96443966  0.39743835    -0.96900
O1883       O  0.49418166  0.95339282  0.43128987    -0.54100
O1884       O  0.47611779  0.91263613  0.41046339    -0.73500
C1885       C  0.47351093  0.88616527  0.40862616     0.98800
O1886       O  0.38174611  0.83822728  0.42230395    -0.62300
O1887       O  0.40255456  0.90808961  0.47487440    -0.57100
O1888       O  0.43461829  0.84829212  0.43641740    -0.93800
O1889       O  0.44800018  0.87222513  0.45452821    -0.92200
O1890       O  0.34561934  0.89501039  0.46533617    -0.92600
O1891       O  0.32172623  0.87357460  0.44338089    -0.91400
C1892       C  0.44807955  0.84997598  0.44729168     1.17700
H1893       H  0.37800404  0.95092546  0.46290556     0.33600
H1894       H  0.34955052  0.89182827  0.41846078     0.44500
H1895       H  0.46151508  0.89975247  0.43414614     0.38000
H1896       H  0.40791738  0.99100247  0.41322820     0.34500
H1897       H  0.28722810  0.91920210  0.44443979     0.26300
H1898       H  0.36255383  0.96794117  0.38311053     0.32200
H1899       H  0.47827534  0.96061841  0.39609506     0.38100
H1900       H  0.34529813  0.91051909  0.47177016     0.32600
H1901       H  0.40606498  0.88771569  0.47609503     0.31500
H1902       H  0.48323903  0.91497606  0.46223112     0.33100
H1903       H  0.50759912  0.95968793  0.42451340     0.32100
H1904       H  0.33655877  0.85888563  0.44345023     0.36100
H1905       H  0.37909137  0.83268421  0.43156643     0.28800
H1906       H  0.37377717  0.04314062  0.44793364     0.33100
H1907       H  0.45408260  0.00894194  0.42499642     0.35900
H1908       H  0.41428444  0.91718078  0.48167798     0.28500
H1909       H  0.39483943  0.82407962  0.41869658     0.41400
H1910       H  0.31798322  0.94211919  0.39502676     0.31500
H1911       H  0.29616838  0.94227351  0.43433949     0.39100
H1912       H  0.49226535  0.96961896  0.43726050     0.30900
H1913       H  0.39207006  0.97839032  0.38811060     0.31000
H1914       H  0.39867486  0.04618376  0.43799481     0.31300
Zr1915     Zr  0.24267624  0.14677233  0.30276076     2.17500
O1916       O  0.29193663  0.14797780  0.29629590    -0.51100
O1917       O  0.24590355  0.10589874  0.28798541    -0.74300
O1918       O  0.27486889  0.12728764  0.32101439    -0.81100
O1919       O  0.21590091  0.19986221  0.27612852    -0.82800
O1920       O  0.24891292  0.11764360  0.33917223    -0.78500
O1921       O  0.25558675  0.18554920  0.28702295    -0.90100
O1922       O  0.20378682  0.08378983  0.28770139    -0.76000
O1923       O  0.21346625  0.11461563  0.31448089    -0.85500
O1924       O  0.19983881  0.14181492  0.29003237    -0.85200
O1925       O  0.23375715  0.16791142  0.32374055    -0.72000
O1926       O  0.21840604  0.19118885  0.30112219    -0.84100
Zr1927     Zr  0.14052729  0.17587478  0.32112412     2.26400
Zr1928     Zr  0.20305504  0.13628395  0.33515007     2.06300
Zr1929     Zr  0.17533861  0.18613675  0.28874541     2.10000
Zr1930     Zr  0.17153302  0.10927891  0.30179148     1.78800
O1931       O  0.17244179  0.22833754  0.27520166    -0.92900
O1932       O  0.17456115  0.06243495  0.31147348    -0.40700
O1933       O  0.14675817  0.15352457  0.30025525    -0.77400
O1934       O  0.16110041  0.12975064  0.32269412    -0.96100
O1935       O  0.18221249  0.18178428  0.33374227    -0.89400
O1936       O  0.16883805  0.20796795  0.30929863    -0.92200
C1937       C  0.22927706  0.08653387  0.28380028     1.01600
C1938       C  0.24251204  0.20062546  0.27818934     1.14500
C1939       C  0.27215391  0.11785009  0.33302219     1.05300
O1940       O  0.19703535  0.08814277  0.34276801    -0.94400
O1941       O  0.16644646  0.13716323  0.35174606    -0.90100
O1942       O  0.13112745  0.16479305  0.34366014    -0.83200
C1943       C  0.14274983  0.15001992  0.35270080     1.11900
O1944       O  0.25892961  0.23110471  0.32195373    -0.96300
Zr1945     Zr  0.21120187  0.21276725  0.32167176     1.88900
O1946       O  0.13376705  0.22267525  0.32996005    -0.73000
O1947       O  0.22480572  0.15439397  0.35506508    -0.52200
O1948       O  0.22731087  0.22036612  0.34406076    -0.96900
O1949       O  0.21850164  0.25566082  0.30906129    -0.54100
O1950       O  0.17640435  0.24426832  0.33026650    -0.73500
C1951       C  0.14990545  0.24359988  0.33231898     0.98800
O1952       O  0.09455546  0.15587371  0.32570825    -0.62300
O1953       O  0.15769336  0.16032476  0.26988954    -0.57100
O1954       O  0.10565097  0.19900347  0.30743228    -0.93800
O1955       O  0.12800803  0.20973949  0.28848438    -0.92200
O1956       O  0.14621780  0.10251372  0.28125050    -0.92600
O1957       O  0.12648266  0.08643827  0.30552001    -0.91400
C1958       C  0.10623312  0.21064430  0.29608896     1.17700
H1959       H  0.20354507  0.13582180  0.28118979     0.33600
H1960       H  0.14860863  0.11746389  0.32744260     0.44500
H1961       H  0.15974654  0.22591880  0.30788757     0.38000
H1962       H  0.25096730  0.17073259  0.32860216     0.34500
H1963       H  0.17010795  0.04947403  0.30418913     0.26300
H1964       H  0.21098154  0.16785970  0.35868406     0.32200
H1965       H  0.22936137  0.24099250  0.34481374     0.38100
H1966       H  0.14535517  0.08186816  0.28014384     0.32600
H1967       H  0.14139180  0.17153734  0.26672935     0.31500
H1968       H  0.16582766  0.22174072  0.26653123     0.33100
H1969       H  0.21660118  0.27109073  0.31547786     0.32100
H1970       H  0.11483294  0.10077863  0.30997106     0.36100
H1971       H  0.08728759  0.14940079  0.31714150     0.28800
H1972       H  0.29893094  0.12849596  0.29749839     0.33100
H1973       H  0.26964807  0.21820315  0.31623473     0.35900
H1974       H  0.17221294  0.16296157  0.26308389     0.28500
H1975       H  0.08254069  0.17210383  0.32808147     0.41400
H1976       H  0.20351372  0.08835276  0.35200642     0.31500
H1977       H  0.19485446  0.05934140  0.31320989     0.39100
H1978       H  0.20158871  0.25742239  0.30340388     0.30900
H1979       H  0.22483506  0.13839983  0.36130286     0.31000
H1980       H  0.30152498  0.15894648  0.30321449     0.31300
Zr1981     Zr  0.63490001  0.54748299  0.44040422     2.17500
O1982       O  0.63352851  0.49883650  0.44787593    -0.51100
O1983       O  0.67921177  0.54532567  0.45282471    -0.74300
O1984       O  0.65327387  0.51483001  0.42239214    -0.81100
O1985       O  0.59603928  0.57990611  0.47012711    -0.82800
O1986       O  0.65428032  0.53794421  0.40281783    -0.78500
O1987       O  0.59906275  0.53971358  0.45823754    -0.90100
O1988       O  0.70367200  0.58504604  0.44886454    -0.76000
O1989       O  0.66125401  0.57301489  0.42466095    -0.85500
O1990       O  0.64747636  0.59144055  0.45069960    -0.85200
O1991       O  0.60469468  0.55365523  0.42153400    -0.72000
O1992       O  0.59340041  0.57446770  0.44485483    -0.84100
Zr1993     Zr  0.60043180  0.64748275  0.42090741     2.26400
Zr1994     Zr  0.63080291  0.58151754  0.40626599     2.06300
Zr1995     Zr  0.60584620  0.61814296  0.45503463     2.10000
Zr1996     Zr  0.67463189  0.61576365  0.43479093     1.78800
O1997       O  0.57101562  0.62883810  0.47171341    -0.92900
O1998       O  0.71486099  0.60417640  0.42101620    -0.40700
O1999       O  0.63265655  0.64302891  0.43918706    -0.77400
O2000       O  0.64447309  0.62472794  0.41605525    -0.96100
O2001       O  0.58752143  0.60431438  0.41106027    -0.89400
O2002       O  0.57486141  0.62222736  0.43698315    -0.92200
C2003       C  0.70091301  0.56094274  0.45453176     1.01600
C2004       C  0.58912781  0.55428125  0.46798504     1.14500
C2005       C  0.65917911  0.51635870  0.40988406     1.05300
O2006       O  0.67203267  0.59263471  0.39320351    -0.94400
O2007       O  0.61510024  0.61159832  0.38858543    -0.90100
O2008       O  0.59789833  0.65200742  0.39723112    -0.83200
C2009       C  0.60395364  0.63607808  0.38750578     1.11900
O2010       O  0.54661316  0.53017866  0.42866439    -0.96300
Zr2011     Zr  0.56220213  0.57877614  0.42696315     1.88900
O2012       O  0.54984996  0.65623140  0.41835608    -0.73000
O2013       O  0.60625457  0.55454050  0.38949744    -0.52200
O2014       O  0.53963665  0.56371027  0.40669956    -0.96900
O2015       O  0.52604876  0.57394478  0.44366978    -0.54100
O2016       O  0.52785358  0.61516382  0.42286883    -0.73500
C2017       C  0.52753947  0.64147188  0.42009639     0.98800
O2018       O  0.62063751  0.69051620  0.41216774    -0.62300
O2019       O  0.64078275  0.63598216  0.47039136    -0.57100
O2020       O  0.58669381  0.68536189  0.43517819    -0.93800
O2021       O  0.58572279  0.66645145  0.45561489    -0.92200
O2022       O  0.69178477  0.64664365  0.45202227    -0.92600
O2023       O  0.70039472  0.65541441  0.42576269    -0.91400
C2024       C  0.58143246  0.68691442  0.44745073     1.17700
H2025       H  0.65665639  0.58926974  0.45910006     0.33600
H2026       H  0.65451241  0.63590436  0.40970909     0.44500
H2027       H  0.55867039  0.63226961  0.44024661     0.38000
H2028       H  0.60010364  0.53561087  0.41779940     0.34500
H2029       H  0.72882715  0.59514550  0.42692838     0.26300
H2030       H  0.62100191  0.54753137  0.38350843     0.32200
H2031       H  0.54286094  0.57914816  0.40036196     0.38100
H2032       H  0.67805792  0.66234360  0.45231725     0.32600
H2033       H  0.63476455  0.65557780  0.47209508     0.31500
H2034       H  0.58199968  0.63563318  0.47932623     0.33100
H2035       H  0.53246095  0.55837535  0.44942978     0.32100
H2036       H  0.68579391  0.66985328  0.42395013     0.36100
H2037       H  0.63311067  0.69754046  0.41921335     0.28800
H2038       H  0.65240650  0.49106179  0.44595313     0.33100
H2039       H  0.55903422  0.52165779  0.43543321     0.35900
H2040       H  0.63698738  0.62585781  0.47868382     0.28500
H2041       H  0.60480866  0.70407225  0.41172657     0.41400
H2042       H  0.67052588  0.58037300  0.38541953     0.31500
H2043       H  0.70849506  0.58886575  0.41519297     0.39100
H2044       H  0.50939677  0.56647585  0.43899108     0.30900
H2045       H  0.59919591  0.53760389  0.39404390     0.31000
H2046       H  0.62077614  0.48933310  0.44162077     0.31300
Zr2047     Zr  0.79401298  0.39334824  0.30627465     2.17500
O2048       O  0.74572290  0.39804083  0.29839711    -0.51100
O2049       O  0.79755063  0.43838837  0.29443140    -0.74300
O2050       O  0.76186876  0.41257928  0.32430833    -0.81100
O2051       O  0.82176003  0.35037687  0.27657645    -0.82800
O2052       O  0.78492781  0.41171757  0.34391384    -0.78500
O2053       O  0.78143256  0.36206751  0.28732382    -0.90100
O2054       O  0.84085082  0.45669006  0.29789278    -0.76000
O2055       O  0.82253819  0.41681821  0.32197895    -0.85500
O2056       O  0.83940895  0.40014318  0.29616438    -0.85200
O2057       O  0.79672864  0.36229660  0.32499817    -0.72000
O2058       O  0.81558045  0.34879844  0.30150937    -0.84100
Zr2059     Zr  0.88949396  0.34753946  0.32579423     2.26400
Zr2060     Zr  0.82699197  0.38552460  0.34028934     2.06300
Zr2061     Zr  0.86079580  0.35560771  0.29157982     2.10000
Zr2062     Zr  0.86702630  0.42427260  0.31203807     1.78800
O2063       O  0.86216957  0.31518057  0.27701710    -0.92900
O2064       O  0.85945676  0.46573565  0.32556222    -0.40700
O2065       O  0.88871704  0.37951413  0.30744655    -0.77400
O2066       O  0.87194200  0.39375342  0.33081646    -0.96100
O2067       O  0.84477503  0.33990377  0.33551238    -0.89400
O2068       O  0.86181102  0.32467140  0.30962924    -0.92200
C2069       C  0.81639393  0.45737531  0.29249309     1.01600
C2070       C  0.79490191  0.35049694  0.27764383     1.14500
C2071       C  0.76349590  0.41779095  0.33688316     1.05300
O2072       O  0.84278842  0.42607969  0.35276584    -0.94400
O2073       O  0.85493309  0.36660058  0.35803106    -0.90100
O2074       O  0.89320733  0.34466016  0.34953498    -0.83200
C2075       C  0.87806954  0.35289865  0.35919697     1.11900
O2076       O  0.76693838  0.30711029  0.31777696    -0.96300
Zr2077     Zr  0.81696152  0.31739275  0.31945490     1.88900
O2078       O  0.89271021  0.29676778  0.32794650    -0.73000
O2079       O  0.79522073  0.36729218  0.35690646    -0.52200
O2080       O  0.80189847  0.29371823  0.33939237    -0.96900
O2081       O  0.80596807  0.28404344  0.30215521    -0.54100
O2082       O  0.84947375  0.27936896  0.32362624    -0.73500
C2083       C  0.87570973  0.27626080  0.32628159     0.98800
O2084       O  0.93478074  0.36048957  0.33521250    -0.62300
O2085       O  0.88022177  0.38540471  0.27443160    -0.57100
O2086       O  0.92649476  0.33196043  0.31117667    -0.93800
O2087       O  0.90861016  0.33374694  0.29048920    -0.92200
O2088       O  0.90075888  0.43646469  0.29509760    -0.92600
O2089       O  0.91023690  0.44419856  0.32088171    -0.91400
C2090       C  0.92859662  0.32799992  0.29877911     1.17700
H2091       H  0.83819975  0.40963766  0.28781637     0.33600
H2092       H  0.88414970  0.40237326  0.33723965     0.44500
H2093       H  0.87017620  0.30767286  0.30627323     0.38000
H2094       H  0.77832591  0.35960655  0.32877057     0.34500
H2095       H  0.86840516  0.48132971  0.32069784     0.26300
H2096       H  0.80106041  0.34748012  0.35821687     0.32200
H2097       H  0.78916102  0.30730258  0.34370054     0.38100
H2098       H  0.88948424  0.43796400  0.28693666     0.32600
H2099       H  0.89054299  0.37228183  0.26866714     0.31500
H2100       H  0.87207974  0.32184098  0.26909369     0.33100
H2101       H  0.80602781  0.26546254  0.30656328     0.32100
H2102       H  0.92122575  0.42781300  0.32410093     0.36100
H2103       H  0.94334515  0.37327328  0.32870729     0.28800
H2104       H  0.74068961  0.41800570  0.29983836     0.33100
H2105       H  0.75954858  0.32114552  0.31142472     0.35900
H2106       H  0.86376177  0.39145491  0.26911962     0.28500
H2107       H  0.94634171  0.34313715  0.33495674     0.41400
H2108       H  0.83097753  0.42604414  0.36072531     0.31500
H2109       H  0.83904793  0.46979779  0.32488454     0.39100
H2110       H  0.82293054  0.28376933  0.29657153     0.30900
H2111       H  0.80078273  0.37682608  0.36512240     0.31000
H2112       H  0.73425079  0.38743083  0.30477791     0.31300
C2113       C  0.66841018  0.46467050  0.38197389    -0.11600
C2114       C  0.69731011  0.46701905  0.37922249     0.10900
C2115       C  0.71426459  0.48174310  0.38847613    -0.03400
C2116       C  0.70152524  0.49457809  0.39958528    -0.06200
C2117       C  0.67246747  0.49271418  0.40218013    -0.17000
C2118       C  0.65603009  0.47630774  0.39339359     0.02000
C2119       C  0.70942673  0.45351026  0.36685962     0.11900
C2120       C  0.74572189  0.48476535  0.38643470     0.62500
H2121       H  0.71400642  0.50795038  0.40588374     0.11900
C2122       C  0.62495214  0.47119999  0.39545554     0.54700
H2123       H  0.65509540  0.45378114  0.37502767     0.07700
C2124       C  0.71294902  0.42393195  0.36553551    -0.06100
C2125       C  0.72794149  0.41302959  0.35463262    -0.06800
C2126       C  0.73966538  0.43029736  0.34482018    -0.16400
C2127       C  0.73467544  0.45969578  0.34573444    -0.02000
C2128       C  0.71914183  0.47065916  0.35651282    -0.09500
C2129       C  0.70177129  0.40383331  0.37584824     0.64700
H2130       H  0.73212861  0.39067545  0.35407389     0.10200
C2131       C  0.74730840  0.47957242  0.33578153     0.63100
H2132       H  0.71569619  0.49308838  0.35728409     0.07600
F2133       F  0.61944680  0.44282541  0.39409569    -0.19900
F2134       F  0.60961532  0.48592882  0.38613132    -0.16100
F2135       F  0.61614478  0.47918828  0.40778673    -0.19600
F2136       F  0.75071916  0.50199624  0.37577682    -0.23000
F2137       F  0.75776058  0.45868743  0.38426034    -0.24500
F2138       F  0.75885198  0.49644144  0.39724537    -0.18500
F2139       F  0.73836670  0.50699992  0.33765612    -0.21000
F2140       F  0.73946346  0.47152191  0.32328815    -0.22100
F2141       F  0.77632569  0.47884785  0.33682382    -0.19300
F2142       F  0.70990210  0.37634648  0.37349442    -0.19400
F2143       F  0.67271266  0.40472609  0.37584930    -0.23200
F2144       F  0.71173319  0.41123598  0.38810720    -0.24800
C2145       C  0.02969031  0.23636975  0.29485081    -0.11600
C2146       C  0.03212600  0.26382746  0.28996882     0.10900
C2147       C  0.05917659  0.27275130  0.28561020    -0.03400
C2148       C  0.08268769  0.25426359  0.28698412    -0.06200
C2149       C  0.08008817  0.22685892  0.29209324    -0.17000
C2150       C  0.05255348  0.21735919  0.29525197     0.02000
C2151       C  0.00609926  0.28248567  0.29014371     0.11900
C2152       C  0.06351287  0.30158461  0.27952149     0.62500
H2153       H  0.10356617  0.26160618  0.28458453     0.11900
C2154       C  0.04595541  0.18726932  0.29900836     0.54700
H2155       H  0.00943407  0.22950955  0.29842455     0.07700
C2156       C  0.98071812  0.27614860  0.28322891    -0.06100
C2157       C  0.95598594  0.29227102  0.28566365    -0.06800
C2158       C  0.95606628  0.31554814  0.29415206    -0.16400
C2159       C  0.98232005  0.32375430  0.29965380    -0.02000
C2160       C  0.00605117  0.30611374  0.29831048    -0.09500
C2161       C  0.97909252  0.25189991  0.27363901     0.64700
H2162       H  0.93614613  0.28595241  0.28134226     0.10200
C2163       C  0.98694083  0.35144413  0.30661876     0.63100
H2164       H  0.02487384  0.31104727  0.30379782     0.07600
F2165       F  0.06684655  0.16873663  0.29522842    -0.19900
F2166       F  0.02133051  0.17892764  0.29287484    -0.16100
F2167       F  0.04223124  0.18558990  0.31240184    -0.19600
F2168       F  0.06160447  0.32220445  0.28895093    -0.23000
F2169       F  0.04340365  0.30648639  0.26992884    -0.24500
F2170       F  0.08972830  0.30375232  0.27376505    -0.18500
F2171       F  0.01018339  0.36459035  0.30131776    -0.21000
F2172       F  0.99199848  0.34644783  0.31977371    -0.22100
F2173       F  0.96445839  0.36977819  0.30525048    -0.19300
F2174       F  0.95678057  0.25540893  0.26499442    -0.19400
F2175       F  0.97529118  0.22695391  0.28035967    -0.23200
F2176       F  0.00345180  0.25018024  0.26632427    -0.24800
C2177       C  0.48178437  0.77642224  0.44882289    -0.11600
C2178       C  0.50717721  0.78185970  0.45529238     0.10900
C2179       C  0.51193029  0.80920418  0.46032843    -0.03400
C2180       C  0.49138064  0.83040620  0.45820427    -0.06200
C2181       C  0.46629159  0.82526854  0.45120065    -0.17000
C2182       C  0.46091736  0.79720531  0.44700977     0.02000
C2183       C  0.52892476  0.75889673  0.45553900     0.11900
C2184       C  0.53911040  0.81648738  0.46737234     0.62500
H2185       H  0.49564824  0.85165542  0.46137659     0.11900
C2186       C  0.43374540  0.78866943  0.44031124     0.54700
H2187       H  0.47876614  0.75569285  0.44471533     0.07700
C2188       C  0.52577268  0.73367216  0.46287154    -0.06100
C2189       C  0.54500727  0.71127416  0.46090024    -0.06800
C2190       C  0.56750193  0.71347304  0.45204295    -0.16400
C2191       C  0.57226558  0.73998725  0.44593292    -0.02000
C2192       C  0.55217113  0.76157340  0.44728175    -0.09500
C2193       C  0.50169872  0.73002641  0.47242663     0.64700
H2194       H  0.54138566  0.69120596  0.46562323     0.10200
C2195       C  0.59800961  0.74674994  0.43784301     0.63100
H2196       H  0.55454284  0.78076808  0.44164635     0.07600
F2197       F  0.41097346  0.80102263  0.44643885    -0.19900
F2198       F  0.42988232  0.75984658  0.44080798    -0.16100
F2199       F  0.43455401  0.79665159  0.42729444    -0.19600
F2200       F  0.56060666  0.81894924  0.45839000    -0.23000
F2201       F  0.54600064  0.79579177  0.47640484    -0.24500
F2202       F  0.53681220  0.84168427  0.47402854    -0.18500
F2203       F  0.60815736  0.77291702  0.44132718    -0.21000
F2204       F  0.59061631  0.74742611  0.42472831    -0.22100
F2205       F  0.61961402  0.72762495  0.43981402    -0.19300
F2206       F  0.50522941  0.70619709  0.48010343    -0.19400
F2207       F  0.47655952  0.72757211  0.46567682    -0.23200
F2208       F  0.50022757  0.75296830  0.48067360    -0.24800
C2209       C  0.31200451  0.06056773  0.38679123    -0.11600
C2210       C  0.33210512  0.06877084  0.37741627     0.10900
C2211       C  0.36093586  0.06358291  0.38045619    -0.03400
C2212       C  0.36840725  0.04932844  0.39230984    -0.06200
C2213       C  0.34821117  0.03948957  0.40128303    -0.17000
C2214       C  0.31947035  0.04572168  0.39848090     0.02000
C2215       C  0.32203079  0.08064926  0.36421756     0.11900
C2216       C  0.38366901  0.07150390  0.37078238     0.62500
H2217       H  0.39018245  0.04373871  0.39416639     0.11900
C2218       C  0.29665331  0.03591636  0.40774025     0.54700
H2219       H  0.29007505  0.06464537  0.38453374     0.07700
C2220       C  0.30935732  0.06375206  0.35429793    -0.06100
C2221       C  0.29658272  0.07669618  0.34317405    -0.06800
C2222       C  0.29610365  0.10596933  0.34119744    -0.16400
C2223       C  0.31062498  0.12272378  0.35054885    -0.02000
C2224       C  0.32313886  0.10989588  0.36185419    -0.09500
C2225       C  0.30762728  0.03195331  0.35496374     0.64700
H2226       H  0.28507961  0.06368542  0.33630584     0.10200
C2227       C  0.31187785  0.15434252  0.34877747     0.63100
H2228       H  0.33276008  0.12291517  0.36928893     0.07600
F2229       F  0.29644636  0.00688994  0.40841029    -0.19900
F2230       F  0.27021244  0.04486430  0.40371254    -0.16100
F2231       F  0.30175690  0.04658006  0.42010652    -0.19600
F2232       F  0.38351050  0.10024811  0.36879335    -0.23000
F2233       F  0.37882937  0.05817016  0.35897436    -0.24500
F2234       F  0.41019294  0.06377607  0.37521828    -0.18500
F2235       F  0.28520832  0.16580882  0.34974665    -0.21000
F2236       F  0.32268742  0.16057565  0.33655647    -0.22100
F2237       F  0.32887747  0.16682007  0.35813034    -0.19300
F2238       F  0.31925503  0.02075617  0.34372696    -0.19400
F2239       F  0.27967036  0.02415966  0.35558970    -0.23200
F2240       F  0.32168171  0.02037063  0.36557525    -0.24800
C2241       C  0.64490101  0.71526000  0.35061950    -0.11600
C2242       C  0.62004268  0.70491114  0.34507579     0.10900
C2243       C  0.60746243  0.71880976  0.33430665    -0.03400
C2244       C  0.61947827  0.74403204  0.32992624    -0.06200
C2245       C  0.64424365  0.75468018  0.33559983    -0.17000
C2246       C  0.65791296  0.73944072  0.34583147     0.02000
C2247       C  0.60760553  0.68036609  0.35166077     0.11900
C2248       C  0.58237322  0.70653502  0.32717354     0.62500
H2249       H  0.60982230  0.75546072  0.32185815     0.11900
C2250       C  0.68582820  0.74832793  0.35187622     0.54700
H2251       H  0.65404803  0.70402658  0.35886766     0.07700
C2252       C  0.62353304  0.65540669  0.35324902    -0.06100
C2253       C  0.61992094  0.63958943  0.36468066    -0.06800
C2254       C  0.59985852  0.64726064  0.37409147    -0.16400
C2255       C  0.57988888  0.66851171  0.37094601    -0.02000
C2256       C  0.58495310  0.68565883  0.36003259    -0.09500
C2257       C  0.64705132  0.64706694  0.34406531     0.64700
H2258       H  0.63456838  0.62255734  0.36671146     0.10200
C2259       C  0.55410758  0.67499289  0.37906536     0.63100
H2260       H  0.57262251  0.70471225  0.35876869     0.07600
F2261       F  0.70697513  0.74604060  0.34268114    -0.19900
F2262       F  0.69344031  0.73160153  0.36245894    -0.16100
F2263       F  0.68405383  0.77569575  0.35626321    -0.19600
F2264       F  0.55912044  0.70611199  0.33520907    -0.23000
F2265       F  0.58857592  0.67942678  0.32324441    -0.24500
F2266       F  0.57558142  0.72218261  0.31617616    -0.18500
F2267       F  0.55862333  0.69948899  0.38595755    -0.21000
F2268       F  0.54760382  0.65351116  0.38767780    -0.22100
F2269       F  0.53107636  0.67880801  0.37087323    -0.19300
F2270       F  0.64579764  0.61850943  0.34164777    -0.19400
F2271       F  0.67271856  0.65308819  0.34982601    -0.23200
F2272       F  0.64511725  0.66096441  0.33216008    -0.24800
C2273       C  0.58283197  0.83992503  0.37500522    -0.11600
C2274       C  0.57337205  0.86468504  0.38081450     0.10900
C2275       C  0.58751823  0.89034693  0.37846876    -0.03400
C2276       C  0.60904713  0.89086980  0.36907736    -0.06200
C2277       C  0.61618342  0.86663363  0.36207139    -0.17000
C2278       C  0.60426306  0.84037628  0.36566501     0.02000
C2279       C  0.54632573  0.86396524  0.38779687     0.11900
C2280       C  0.57887047  0.91718121  0.38540542     0.62500
H2281       H  0.61890214  0.91055516  0.36644016     0.11900
C2282       C  0.61259910  0.81301650  0.35914211     0.54700
H2283       H  0.57193230  0.82049172  0.37713193     0.07700
C2284       C  0.52068725  0.86848133  0.38094576    -0.06100
C2285       C  0.49624246  0.87332346  0.38820165    -0.06800
C2286       C  0.49686076  0.87266980  0.40187129    -0.16400
C2287       C  0.52158499  0.86449967  0.40864969    -0.02000
C2288       C  0.54634820  0.86045098  0.40143647    -0.09500
C2289       C  0.51930414  0.86880743  0.36607705     0.64700
H2290       H  0.47675336  0.87911192  0.38330315     0.10200
C2291       C  0.52157154  0.86068657  0.42339796     0.63100
H2292       H  0.56605592  0.85588409  0.40640445     0.07600
F2293       F  0.59819920  0.81031780  0.34741226    -0.19900
F2294       F  0.60630143  0.79008282  0.36696072    -0.16100
F2295       F  0.64121388  0.81250613  0.35689301    -0.19600
F2296       F  0.58151275  0.91347784  0.39879855    -0.23000
F2297       F  0.55122576  0.92387051  0.38241520    -0.24500
F2298       F  0.59546864  0.93969990  0.38177926    -0.18500
F2299       F  0.54678377  0.84959747  0.42795876    -0.21000
F2300       F  0.50032378  0.84238601  0.42682144    -0.22100
F2301       F  0.51705222  0.88625234  0.42944211    -0.19300
F2302       F  0.49235341  0.87431963  0.36157004    -0.19400
F2303       F  0.52747728  0.84286379  0.36133772    -0.23200
F2304       F  0.53682484  0.88924275  0.36106925    -0.24800
C2305       C  0.91819737  0.21352815  0.33774944    -0.11600
C2306       C  0.89581047  0.19473329  0.33928615     0.10900
C2307       C  0.87085231  0.19898592  0.33202914    -0.03400
C2308       C  0.86603800  0.22541297  0.32656902    -0.06200
C2309       C  0.88603564  0.24695565  0.32775805    -0.17000
C2310       C  0.91398889  0.23954455  0.33143903     0.02000
C2311       C  0.89348441  0.18060414  0.35202744     0.11900
C2312       C  0.84718820  0.17781310  0.33148409     0.62500
H2313       H  0.84546691  0.22966592  0.32234958     0.11900
C2314       C  0.93907571  0.25822909  0.32867036     0.54700
H2315       H  0.93787763  0.20933860  0.34281407     0.07700
C2316       C  0.90481306  0.15380364  0.35472699    -0.06100
C2317       C  0.89930368  0.14172931  0.36703512    -0.06800
C2318       C  0.88381797  0.15635792  0.37657361    -0.16400
C2319       C  0.87256873  0.18324959  0.37378241    -0.02000
C2320       C  0.87773417  0.19490240  0.36149842    -0.09500
C2321       C  0.92302068  0.13870674  0.34480071     0.64700
H2322       H  0.90812050  0.12134392  0.36953289     0.10200
C2323       C  0.85469247  0.20049056  0.38312297     0.63100
H2324       H  0.86915706  0.21553770  0.35918693     0.07600
F2325       F  0.96413022  0.24349841  0.33001255    -0.19900
F2326       F  0.93979884  0.28065530  0.33720226    -0.16100
F2327       F  0.93748756  0.26806289  0.31590766    -0.19600
F2328       F  0.82426877  0.18806592  0.33828449    -0.23000
F2329       F  0.85484126  0.15209428  0.33677182    -0.24500
F2330       F  0.83944377  0.17363896  0.31855577    -0.18500
F2331       F  0.86809594  0.22562994  0.38568801    -0.21000
F2332       F  0.84945209  0.18718893  0.39490439    -0.22100
F2333       F  0.82899431  0.20621113  0.37724460    -0.19300
F2334       F  0.93087034  0.11218941  0.34913161    -0.19400
F2335       F  0.94714847  0.15408642  0.34260953    -0.23200
F2336       F  0.90861819  0.13580746  0.33307989    -0.24800
C2337       C  0.03104186  0.15453328  0.38242467    -0.11600
C2338       C  0.05541881  0.14796526  0.38966246     0.10900
C2339       C  0.05390699  0.14300327  0.40326580    -0.03400
C2340       C  0.02725614  0.14028315  0.40886131    -0.06200
C2341       C  0.00278889  0.14391487  0.40130544    -0.17000
C2342       C  0.00437458  0.15288141  0.38814660     0.02000
C2343       C  0.08199288  0.14565282  0.38248692     0.11900
C2344       C  0.08019062  0.14073029  0.41171968     0.62500
H2345       H  0.02523853  0.13436575  0.41907766     0.11900
C2346       C  0.97806942  0.15936444  0.38015880     0.54700
H2347       H  0.03306246  0.15966146  0.37212093     0.07700
C2348       C  0.08903954  0.12107077  0.37541072    -0.06100
C2349       C  0.11165426  0.12225353  0.36664546    -0.06800
C2350       C  0.12654426  0.14723528  0.36476952    -0.16400
C2351       C  0.12101096  0.17084083  0.37273890    -0.02000
C2352       C  0.09857605  0.16966986  0.38151838    -0.09500
C2353       C  0.07192342  0.09428699  0.37665276     0.64700
H2354       H  0.11636648  0.10447296  0.36041967     0.10200
C2355       C  0.13743704  0.19780143  0.37133313     0.63100
H2356       H  0.09260154  0.18814839  0.38703398     0.07600
F2357       F  0.96126708  0.13577845  0.37947200    -0.19900
F2358       F  0.98443568  0.16769100  0.36751040    -0.16100
F2359       F  0.96318397  0.18091382  0.38602965    -0.19600
F2360       F  0.09448868  0.16594537  0.41131081    -0.23000
F2361       F  0.09759920  0.11959533  0.40719335    -0.24500
F2362       F  0.07381042  0.13494954  0.42466787    -0.18500
F2363       F  0.12950159  0.21118881  0.35985269    -0.21000
F2364       F  0.16593922  0.19187391  0.37106455    -0.22100
F2365       F  0.13253656  0.21587987  0.38168128    -0.19300
F2366       F  0.08314186  0.07265747  0.36926886    -0.19400
F2367       F  0.04464330  0.09900621  0.37239525    -0.23200
F2368       F  0.07144208  0.08556906  0.38958175    -0.24800
C2369       C  0.79749384  0.96945644  0.35736458    -0.11600
C2370       C  0.81177617  0.95206828  0.36647470     0.10900
C2371       C  0.81210381  0.92262770  0.36396636    -0.03400
C2372       C  0.79793619  0.91180974  0.35268799    -0.06200
C2373       C  0.78314388  0.92919253  0.34373483    -0.17000
C2374       C  0.78308477  0.95858428  0.34621217     0.02000
C2375       C  0.82564384  0.96538719  0.37854345     0.11900
C2376       C  0.82651687  0.90253361  0.37347097     0.62500
H2377       H  0.79691709  0.88932581  0.35118951     0.11900
C2378       C  0.76686244  0.97831585  0.33719597     0.54700
H2379       H  0.79696365  0.99180579  0.35929293     0.07700
C2380       C  0.85196389  0.97936304  0.37790767    -0.06100
C2381       C  0.86263193  0.99343071  0.38915914    -0.06800
C2382       C  0.84798914  0.99487208  0.40117772    -0.16400
C2383       C  0.82210581  0.98015474  0.40194098    -0.02000
C2384       C  0.81152059  0.96559118  0.39071296    -0.09500
C2385       C  0.86824073  0.98059670  0.36515062     0.64700
H2386       H  0.88191412  0.00533363  0.38835909     0.10200
C2387       C  0.80521841  0.98090762  0.41445907     0.63100
H2388       H  0.79140161  0.95510613  0.39121637     0.07600
F2389       F  0.77069493  0.00619123  0.34055056    -0.19900
F2390       F  0.73841132  0.97254671  0.33782526    -0.16100
F2391       F  0.77590561  0.97470123  0.32445554    -0.19600
F2392       F  0.81326293  0.90360064  0.38547618    -0.23000
F2393       F  0.85440700  0.90989220  0.37508852    -0.24500
F2394       F  0.82568987  0.87505958  0.36907912    -0.18500
F2395       F  0.79783593  0.00833044  0.41736101    -0.21000
F2396       F  0.82127108  0.96995542  0.42462353    -0.22100
F2397       F  0.78081952  0.96528948  0.41344699    -0.19300
F2398       F  0.89434496  0.99291214  0.36679017    -0.19400
F2399       F  0.85332024  0.99620370  0.35598674    -0.23200
F2400       F  0.87245461  0.95379983  0.36035143    -0.24800
C2401       C  0.49344749  0.74243169  0.27427908    -0.11600
C2402       C  0.50613059  0.75828576  0.28430704     0.10900
C2403       C  0.49191952  0.76101919  0.29641413    -0.03400
C2404       C  0.46658963  0.74631560  0.29836615    -0.06200
C2405       C  0.45456096  0.72900367  0.28867908    -0.17000
C2406       C  0.46774723  0.72783616  0.27622198     0.02000
C2407       C  0.53516769  0.77024187  0.28252668     0.11900
C2408       C  0.50391412  0.77888918  0.30741499     0.62500
H2409       H  0.45614513  0.74777707  0.30774396     0.11900
C2410       C  0.45524782  0.71068783  0.26517993     0.54700
H2411       H  0.50427814  0.74098183  0.26500442     0.07700
C2412       C  0.55957358  0.75435375  0.28577845    -0.06100
C2413       C  0.58544110  0.76843439  0.28774396    -0.06800
C2414       C  0.58793249  0.79752704  0.28564652    -0.16400
C2415       C  0.56447877  0.81255030  0.28051349    -0.02000
C2416       C  0.53828534  0.79875653  0.27920197    -0.09500
C2417       C  0.55798761  0.72264481  0.28714950     0.64700
H2418       H  0.60362442  0.75699392  0.29140757     0.10200
C2419       C  0.56720300  0.84328958  0.27678639     0.63100
H2420       H  0.51971900  0.81052301  0.27626600     0.07600
F2421       F  0.47193521  0.71122314  0.25411359    -0.19900
F2422       F  0.42915625  0.72154848  0.26180095    -0.16100
F2423       F  0.45241744  0.68299788  0.26911703    -0.19600
F2424       F  0.50657160  0.80639380  0.30320667    -0.23000
F2425       F  0.53005409  0.76870510  0.31115874    -0.24500
F2426       F  0.48680092  0.77887614  0.31834847    -0.18500
F2427       F  0.54315093  0.85338038  0.27063007    -0.21000
F2428       F  0.58950362  0.84653177  0.26826394    -0.22100
F2429       F  0.57203909  0.85921658  0.28786171    -0.19300
F2430       F  0.58385485  0.71094486  0.29035662    -0.19400
F2431       F  0.54933740  0.71127072  0.27536551    -0.23200
F2432       F  0.53890955  0.71532069  0.29674002    -0.24800
C2433       C  0.39412382  0.82279951  0.33326045    -0.11600
C2434       C  0.40881801  0.82182070  0.34514571     0.10900
C2435       C  0.42519553  0.79779909  0.34841782    -0.03400
C2436       C  0.42224206  0.77363932  0.34075609    -0.06200
C2437       C  0.40363191  0.77327820  0.33006403    -0.17000
C2438       C  0.39185102  0.79892137  0.32539248     0.02000
C2439       C  0.39948834  0.84113152  0.35547593     0.11900
C2440       C  0.44323887  0.79562068  0.36070369     0.62500
H2441       H  0.43204908  0.75421392  0.34406005     0.11900
C2442       C  0.37500021  0.80176597  0.31278449     0.54700
H2443       H  0.38204820  0.84144945  0.33071797     0.07700
C2444       C  0.41040792  0.86839531  0.35706252    -0.06100
C2445       C  0.40413261  0.88286706  0.36869383    -0.06800
C2446       C  0.38675993  0.87085391  0.37830534    -0.16400
C2447       C  0.37337380  0.84491706  0.37589053    -0.02000
C2448       C  0.38017076  0.83035267  0.36446823    -0.09500
C2449       C  0.42872065  0.88158399  0.34661620     0.64700
H2450       H  0.41363248  0.90309477  0.37061075     0.10200
C2451       C  0.35239518  0.83239933  0.38537415     0.63100
H2452       H  0.37145060  0.80968236  0.36273483     0.07600
F2453       F  0.38509466  0.82423836  0.30560519    -0.19900
F2454       F  0.34709015  0.80684049  0.31577335    -0.16100
F2455       F  0.37681139  0.77817961  0.30495843    -0.19600
F2456       F  0.43081252  0.77722684  0.36943278    -0.23000
F2457       F  0.44691373  0.82122441  0.36682115    -0.24500
F2458       F  0.46957632  0.78537569  0.35747373    -0.18500
F2459       F  0.33806389  0.81002520  0.37988811    -0.21000
F2460       F  0.33279097  0.85254978  0.38887324    -0.22100
F2461       F  0.36625563  0.82277059  0.39643770    -0.19300
F2462       F  0.43870390  0.90759212  0.35042305    -0.19400
F2463       F  0.41314268  0.88516012  0.33524657    -0.23200
F2464       F  0.45149569  0.86435956  0.34399534    -0.24800
C2465       C  0.45073456  0.64570581  0.37974420    -0.11600
C2466       C  0.43956788  0.66451266  0.38893570     0.10900
C2467       C  0.41570920  0.68103558  0.38584879    -0.03400
C2468       C  0.40372871  0.67830364  0.37333874    -0.06200
C2469       C  0.41496552  0.65950036  0.36418859    -0.17000
C2470       C  0.43855740  0.64270256  0.36733746     0.02000
C2471       C  0.45350390  0.66519450  0.40177559     0.11900
C2472       C  0.40264523  0.70057942  0.39583861     0.62500
H2473       H  0.38545030  0.69073758  0.37058727     0.11900
C2474       C  0.45013846  0.62127961  0.35775988     0.54700
H2475       H  0.46898387  0.63318775  0.38246291     0.07700
C2476       C  0.45272434  0.64146440  0.41013278    -0.06100
C2477       C  0.47597740  0.63628708  0.41821082    -0.06800
C2478       C  0.49930095  0.65435730  0.41807547    -0.16400
C2479       C  0.49550086  0.68177465  0.41298910    -0.02000
C2480       C  0.47364203  0.68613205  0.40394137    -0.09500
C2481       C  0.42917881  0.62004747  0.41016501     0.64700
H2482       H  0.47703836  0.61647425  0.42347910     0.10200
C2483       C  0.51282266  0.70662722  0.41733539     0.63100
H2484       H  0.47313108  0.70528218  0.39815798     0.07600
F2485       F  0.47190183  0.60559505  0.36318806    -0.19900
F2486       F  0.46026306  0.63483886  0.34677479    -0.16100
F2487       F  0.42903312  0.60298705  0.35405433    -0.19600
F2488       F  0.42148194  0.72143745  0.39914714    -0.23000
F2489       F  0.39573341  0.68554717  0.40698007    -0.24500
F2490       F  0.37840137  0.71329530  0.39105474    -0.18500
F2491       F  0.53190943  0.71374786  0.40777035    -0.21000
F2492       F  0.52692125  0.70094347  0.42893012    -0.22100
F2493       F  0.49524525  0.72940047  0.41953726    -0.19300
F2494       F  0.41798300  0.61852422  0.42262657    -0.19400
F2495       F  0.43981160  0.59392560  0.40685467    -0.23200
F2496       F  0.40759203  0.62676043  0.40156086    -0.24800
C2497       C  0.97871026  0.25325059  0.44981527    -0.11600
C2498       C  0.00781970  0.25082368  0.44783466     0.10900
C2499       C  0.01987680  0.22351057  0.44698518    -0.03400
C2500       C  0.00196441  0.19977878  0.44696702    -0.06200
C2501       C  0.97257547  0.20246320  0.44791402    -0.17000
C2502       C  0.96088526  0.22963934  0.44995219     0.02000
C2503       C  0.02443399  0.27737321  0.44582459     0.11900
C2504       C  0.05145898  0.21944755  0.44597092     0.62500
H2505       H  0.01070035  0.17894854  0.44555810     0.11900
C2506       C  0.92973007  0.23502936  0.45195287     0.54700
H2507       H  0.96961592  0.27408048  0.45080053     0.07700
C2508       C  0.02413946  0.29184259  0.43365621    -0.06100
C2509       C  0.03908352  0.31729773  0.43246141    -0.06800
C2510       C  0.05472284  0.32905629  0.44288380    -0.16400
C2511       C  0.05470496  0.31460421  0.45514334    -0.02000
C2512       C  0.03939327  0.28912529  0.45637737    -0.09500
C2513       C  0.00878382  0.27998131  0.42178872     0.64700
H2514       H  0.03888558  0.32819951  0.42313258     0.10200
C2515       C  0.07133795  0.32531424  0.46678487     0.63100
H2516       H  0.03898763  0.27802046  0.46565190     0.07600
F2517       F  0.91855380  0.24734100  0.44077307    -0.19900
F2518       F  0.92604104  0.25319547  0.46237010    -0.16100
F2519       F  0.91497493  0.21079130  0.45472142    -0.19600
F2520       F  0.06420021  0.22881772  0.45733784    -0.23000
F2521       F  0.06181982  0.23442659  0.43543803    -0.24500
F2522       F  0.05866884  0.19145598  0.44429850    -0.18500
F2523       F  0.06099391  0.35121455  0.47055712    -0.21000
F2524       F  0.09938370  0.32772321  0.46345393    -0.22100
F2525       F  0.06957417  0.30734237  0.47745660    -0.19300
F2526       F  0.01036764  0.29770536  0.41102631    -0.19400
F2527       F  0.98067135  0.27608394  0.42455169    -0.23200
F2528       F  0.02056242  0.25442810  0.41840918    -0.24800
C2529       C  0.12978586  0.37240781  0.34798448    -0.11600
C2530       C  0.10956006  0.35107722  0.34834464     0.10900
C2531       C  0.08789875  0.35198140  0.35769918    -0.03400
C2532       C  0.09008623  0.37149946  0.36781951    -0.06200
C2533       C  0.11362907  0.38917382  0.36901488    -0.17000
C2534       C  0.13257919  0.39149197  0.35837506     0.02000
C2535       C  0.11866181  0.32363281  0.34341703     0.11900
C2536       C  0.06404445  0.33078527  0.35763922     0.62500
H2537       H  0.07462529  0.37123871  0.37556524     0.11900
C2538       C  0.15662936  0.41230385  0.35826949     0.54700
H2539       H  0.14576990  0.37136322  0.34047563     0.07700
C2540       C  0.10865928  0.31085926  0.33184478    -0.06100
C2541       C  0.11788924  0.28345440  0.32906750    -0.06800
C2542       C  0.13736652  0.26942930  0.33723562    -0.16400
C2543       C  0.14764475  0.28259385  0.34868915    -0.02000
C2544       C  0.13794984  0.30947984  0.35154056    -0.09500
C2545       C  0.08952432  0.32526265  0.32194128     0.64700
H2546       H  0.11092607  0.27346105  0.32008452     0.10200
C2547       C  0.16874270  0.26983310  0.35829514     0.63100
H2548       H  0.14546943  0.31968476  0.36038302     0.07600
F2549       F  0.14593060  0.43928600  0.35902410    -0.19900
F2550       F  0.17226814  0.41056824  0.34689522    -0.16100
F2551       F  0.17452684  0.40717240  0.36874320    -0.19600
F2552       F  0.07451611  0.30375493  0.35902102    -0.23000
F2553       F  0.04935355  0.33283694  0.34595806    -0.24500
F2554       F  0.04526630  0.33548065  0.36772833    -0.18500
F2555       F  0.19320343  0.28544558  0.35804258    -0.21000
F2556       F  0.17549737  0.24220652  0.35570062    -0.22100
F2557       F  0.15772970  0.27082560  0.37080501    -0.19300
F2558       F  0.10327779  0.32700982  0.31006436    -0.19400
F2559       F  0.08177045  0.35214545  0.32557289    -0.23200
F2560       F  0.06543247  0.30947922  0.32032256    -0.24800
C2561       C  0.96768633  0.38689066  0.38866908    -0.11600
C2562       C  0.95420335  0.36886373  0.39750553     0.10900
C2563       C  0.96686824  0.36190095  0.40961894    -0.03400
C2564       C  0.99313567  0.37375273  0.41259444    -0.06200
C2565       C  0.00630596  0.39221310  0.40380531    -0.17000
C2566       C  0.99364534  0.39893602  0.39165372     0.02000
C2567       C  0.92701434  0.35763835  0.39318515     0.11900
C2568       C  0.95234872  0.34263349  0.41929437     0.62500
H2569       H  0.00334932  0.36916974  0.42188125     0.11900
C2570       C  0.00749641  0.41865066  0.38191092     0.54700
H2571       H  0.95742829  0.39163196  0.37940273     0.07700
C2572       C  0.90371115  0.37593316  0.39174033    -0.06100
C2573       C  0.88507860  0.37134850  0.38134691    -0.06800
C2574       C  0.88920666  0.34898241  0.37261031    -0.16400
C2575       C  0.90846094  0.32732878  0.37603793    -0.02000
C2576       C  0.92784729  0.33247300  0.38612145    -0.09500
C2577       C  0.89951592  0.40217423  0.39989399     0.64700
H2578       H  0.86921063  0.38722408  0.37925581     0.10200
C2579       C  0.90969929  0.29899443  0.36936514     0.63100
H2580       H  0.94527144  0.31798534  0.38762021     0.07600
F2581       F  0.00789512  0.44557623  0.38692295    -0.19900
F2582       F  0.99321929  0.41943364  0.37005121    -0.16100
F2583       F  0.03477479  0.40991269  0.37953108    -0.19600
F2584       F  0.94781827  0.31675070  0.41360687    -0.23000
F2585       F  0.92670126  0.35404286  0.42282605    -0.24500
F2586       F  0.96824707  0.33864315  0.43056230    -0.18500
F2587       F  0.93504442  0.29619790  0.36292358    -0.21000
F2588       F  0.88787189  0.29514395  0.36055207    -0.22100
F2589       F  0.90788015  0.27806646  0.37877417    -0.19300
F2590       F  0.87257871  0.40221999  0.40495633    -0.19400
F2591       F  0.90274833  0.42568071  0.39204447    -0.23200
F2592       F  0.91824466  0.40385370  0.41026417    -0.24800
C2593       C  0.21736390  0.61312046  0.36098994    -0.11600
C2594       C  0.21685869  0.58410217  0.36383848     0.10900
C2595       C  0.22967631  0.56562888  0.35465285    -0.03400
C2596       C  0.24550806  0.57690886  0.34404829    -0.06200
C2597       C  0.24743324  0.60602977  0.34164534    -0.17000
C2598       C  0.23208329  0.62427180  0.35001474     0.02000
C2599       C  0.20204905  0.57352417  0.37616560     0.11900
C2600       C  0.22592781  0.53403659  0.35583150     0.62500
H2601       H  0.25721975  0.56296729  0.33771233     0.11900
C2602       C  0.23169353  0.65563319  0.34733587     0.54700
H2603       H  0.20656983  0.62714760  0.36762660     0.07700
C2604       C  0.21632152  0.56786654  0.38823245    -0.06100
C2605       C  0.20170558  0.55456090  0.39877090    -0.06800
C2606       C  0.17289159  0.54774128  0.39795290    -0.16400
C2607       C  0.15813020  0.55665467  0.38638701    -0.02000
C2608       C  0.17290961  0.56894039  0.37577890    -0.09500
C2609       C  0.24700979  0.57577705  0.38992921     0.64700
H2610       H  0.21323351  0.54766514  0.40739013     0.10200
C2611       C  0.12666233  0.55288899  0.38448779     0.63100
H2612       H  0.16153039  0.57432810  0.36687238     0.07600
F2613       F  0.25846755  0.66646726  0.34875402    -0.19900
F2614       F  0.21396472  0.66978089  0.35579420    -0.16100
F2615       F  0.22235335  0.66051159  0.33465929    -0.19600
F2616       F  0.19766929  0.52766376  0.35472220    -0.23000
F2617       F  0.23574942  0.52438024  0.36779185    -0.24500
F2618       F  0.24020786  0.51974831  0.34610813    -0.18500
F2619       F  0.11441308  0.57880140  0.38197558    -0.21000
F2620       F  0.11356636  0.54151984  0.39533044    -0.22100
F2621       F  0.12184330  0.53557988  0.37386233    -0.19300
F2622       F  0.25658969  0.57025462  0.40251670    -0.19400
F2623       F  0.25021289  0.60418670  0.38750593    -0.23200
F2624       F  0.26361560  0.56090075  0.38130310    -0.24800
C2625       C  0.34022678  0.41719398  0.86242942    -0.11600
C2626       C  0.34133435  0.44635911  0.86448150     0.10900
C2627       C  0.32981491  0.46408863  0.85451045    -0.03400
C2628       C  0.31422089  0.45210751  0.84392679    -0.06200
C2629       C  0.31121534  0.42280120  0.84241188    -0.17000
C2630       C  0.32614028  0.40524852  0.85147935     0.02000
C2631       C  0.35321980  0.45779469  0.87733778     0.11900
C2632       C  0.33411245  0.49563322  0.85511125     0.62500
H2633       H  0.30297313  0.46568971  0.83713805     0.11900
C2634       C  0.32761994  0.37357247  0.85011791     0.54700
H2635       H  0.35000343  0.40342650  0.86963635     0.07700
C2636       C  0.33576008  0.46340640  0.88832435    -0.06100
C2637       C  0.34698310  0.47762031  0.89940859    -0.06800
C2638       C  0.37545818  0.48530184  0.90031568    -0.16400
C2639       C  0.39350874  0.47723642  0.88988807    -0.02000
C2640       C  0.38213781  0.46381325  0.87857611    -0.09500
C2641       C  0.30521576  0.45432034  0.88833589     0.64700
H2642       H  0.33317751  0.48407691  0.90725353     0.10200
C2643       C  0.42475370  0.48338586  0.89074455     0.63100
H2644       H  0.39566551  0.45872361  0.87041690     0.07600
F2645       F  0.31493881  0.36104631  0.86079437    -0.19900
F2646       F  0.35556406  0.36532556  0.84977039    -0.16100
F2647       F  0.31476805  0.36401571  0.83880764    -0.19600
F2648       F  0.36259577  0.50132289  0.85463698    -0.23000
F2649       F  0.32330459  0.50636679  0.86660232    -0.24500
F2650       F  0.32113267  0.50936651  0.84471867    -0.18500
F2651       F  0.43925317  0.47267152  0.88013975    -0.21000
F2652       F  0.43573936  0.47128953  0.90202778    -0.22100
F2653       F  0.42911742  0.51206686  0.89113688    -0.19300
F2654       F  0.29166185  0.46218284  0.89972656    -0.19400
F2655       F  0.30396265  0.42538446  0.88735496    -0.23200
F2656       F  0.29086845  0.46624275  0.87787852    -0.24800
C2657       C  0.55170237  0.78313830  0.96141799    -0.11600
C2658       C  0.53272561  0.77350762  0.95182402     0.10900
C2659       C  0.52710147  0.79066295  0.94068449    -0.03400
C2660       C  0.54129514  0.81646786  0.93939027    -0.06200
C2661       C  0.56098473  0.82570444  0.94873887    -0.17000
C2662       C  0.56635706  0.80880386  0.95993477     0.02000
C2663       C  0.51885720  0.74545597  0.95351341     0.11900
C2664       C  0.50672934  0.78141158  0.93000249     0.62500
H2665       H  0.53770933  0.82943909  0.93079102     0.11900
C2666       C  0.58871751  0.81710427  0.96979649     0.54700
H2667       H  0.55555768  0.76994684  0.96991291     0.07700
C2668       C  0.53213738  0.71981484  0.94995422    -0.06100
C2669       C  0.51591127  0.69494626  0.94947966    -0.06800
C2670       C  0.48712290  0.69498310  0.95258892    -0.16400
C2671       C  0.47456498  0.72020651  0.95710513    -0.02000
C2672       C  0.49080672  0.74491912  0.95769085    -0.09500
C2673       C  0.56315934  0.71889201  0.94649541     0.64700
H2674       H  0.52526103  0.67553094  0.94605502     0.10200
C2675       C  0.44383506  0.72112855  0.96096165     0.63100
H2676       H  0.48121385  0.76453957  0.96069085     0.07600
F2677       F  0.61454154  0.81849995  0.96364639    -0.19900
F2678       F  0.59083813  0.79792942  0.97999104    -0.16100
F2679       F  0.58226535  0.84307066  0.97503951    -0.19600
F2680       F  0.47998990  0.77872850  0.93508114    -0.23000
F2681       F  0.51525948  0.75585240  0.92494628    -0.24500
F2682       F  0.50529341  0.80058038  0.91977271    -0.18500
F2683       F  0.43863334  0.70040376  0.97015863    -0.21000
F2684       F  0.42704821  0.71676434  0.95006582    -0.22100
F2685       F  0.43646551  0.74677975  0.96634076    -0.19300
F2686       F  0.57167699  0.69224982  0.94275286    -0.19400
F2687       F  0.57900609  0.72659101  0.95728902    -0.23200
F2688       F  0.56861312  0.73720281  0.93627746    -0.24800
C2689       C  0.01231184  0.22669184  0.79764665    -0.11600
C2690       C  0.01006540  0.25563280  0.79523640     0.10900
C2691       C  0.98293716  0.26688649  0.79239768    -0.03400
C2692       C  0.95875520  0.24949283  0.79380310    -0.06200
C2693       C  0.96095658  0.22070422  0.79713598    -0.17000
C2694       C  0.98856609  0.20893188  0.79815557     0.02000
C2695       C  0.03618297  0.27360617  0.79674225     0.11900
C2696       C  0.97985136  0.29698157  0.78762836     0.62500
H2697       H  0.93792246  0.25846511  0.79257539     0.11900
C2698       C  0.99466420  0.17769633  0.79931083     0.54700
H2699       H  0.03310267  0.21774705  0.79919974     0.07700
C2700       C  0.04530377  0.28276605  0.80922590    -0.06100
C2701       C  0.06952782  0.29972430  0.81024400    -0.06800
C2702       C  0.08723325  0.30606344  0.79949899    -0.16400
C2703       C  0.07805573  0.29661725  0.78690538    -0.02000
C2704       C  0.05267083  0.28077013  0.78579196    -0.09500
C2705       C  0.02989172  0.27387811  0.82158878     0.64700
H2706       H  0.07509603  0.30760159  0.81980384     0.10200
C2707       C  0.09428369  0.30368364  0.77459870     0.63100
H2708       H  0.04564116  0.27340401  0.77631166     0.07600
F2709       F  0.00669124  0.17206754  0.81141372    -0.19900
F2710       F  0.01350213  0.17009387  0.78964623    -0.16100
F2711       F  0.97109891  0.16117482  0.79774781    -0.19600
F2712       F  0.99419896  0.30007887  0.77596438    -0.23000
F2713       F  0.99090727  0.31535188  0.79674485    -0.24500
F2714       F  0.95198157  0.30421511  0.78540502    -0.18500
F2715       F  0.12068019  0.29136877  0.77511383    -0.21000
F2716       F  0.09682966  0.33253420  0.77348614    -0.22100
F2717       F  0.08084022  0.29408732  0.76342411    -0.19300
F2718       F  0.04149560  0.28557455  0.83276473    -0.19400
F2719       F  0.03117128  0.24498662  0.82297075    -0.23200
F2720       F  0.00206492  0.28213017  0.82083874    -0.24800
C2721       C  0.71761046  0.10194816  0.86088537    -0.11600
C2722       C  0.71783200  0.07295324  0.86364852     0.10900
C2723       C  0.73061149  0.05473659  0.85437554    -0.03400
C2724       C  0.74513221  0.06639174  0.84347679    -0.06200
C2725       C  0.74656072  0.09562195  0.84114398    -0.17000
C2726       C  0.73165749  0.11350985  0.84984291     0.02000
C2727       C  0.70368422  0.06213195  0.87600195     0.11900
C2728       C  0.72915258  0.02302732  0.85609150     0.62500
H2729       H  0.75687987  0.05270248  0.83703428     0.11900
C2730       C  0.73185263  0.14501222  0.84780118     0.54700
H2731       H  0.70711208  0.11568448  0.86775379     0.07700
C2732       C  0.71800500  0.05859725  0.88821192    -0.06100
C2733       C  0.70407413  0.04515368  0.89885334    -0.06800
C2734       C  0.67591593  0.03623078  0.89794598    -0.16400
C2735       C  0.66091609  0.04275146  0.88617653    -0.02000
C2736       C  0.67510716  0.05496553  0.87542221    -0.09500
C2737       C  0.74794106  0.06890184  0.88997682     0.64700
H2738       H  0.71566048  0.03998852  0.90771267     0.10200
C2739       C  0.63005907  0.03593078  0.88426593     0.63100
H2740       H  0.66376911  0.05845176  0.86630724     0.07600
F2741       F  0.71305346  0.15848722  0.85600348    -0.19900
F2742       F  0.72435074  0.15126431  0.83500109    -0.16100
F2743       F  0.75849615  0.15523919  0.85029509    -0.19600
F2744       F  0.70134906  0.01465383  0.85632372    -0.23000
F2745       F  0.74198886  0.01499034  0.86770408    -0.24500
F2746       F  0.74234894  0.00898930  0.84596778    -0.18500
F2747       F  0.61695456  0.02900563  0.89589321    -0.21000
F2748       F  0.62754107  0.01372966  0.87565115    -0.22100
F2749       F  0.61620595  0.05907995  0.87902694    -0.19300
F2750       F  0.75821556  0.06316521  0.90243286    -0.19400
F2751       F  0.74863941  0.09766190  0.88805683    -0.23200
F2752       F  0.76557669  0.05618109  0.88104832    -0.24800
C2753       C  0.90294693  0.29107852  0.85729561    -0.11600
C2754       C  0.91749801  0.30802017  0.84841252     0.10900
C2755       C  0.92739031  0.29697758  0.83651973    -0.03400
C2756       C  0.92143488  0.26878031  0.83365478    -0.06200
C2757       C  0.90527069  0.25234940  0.84223305    -0.17000
C2758       C  0.89624410  0.26335985  0.85434865     0.02000
C2759       C  0.92053797  0.33760090  0.85197045     0.11900
C2760       C  0.94249927  0.31549825  0.82673645     0.62500
H2761       H  0.92757960  0.25998620  0.82431116     0.11900
C2762       C  0.87840895  0.24754188  0.86420463     0.54700
H2763       H  0.89573381  0.30006045  0.86644752     0.07700
C2764       C  0.89652503  0.35522815  0.85280737    -0.06100
C2765       C  0.89654828  0.37666007  0.86215153    -0.06800
C2766       C  0.92012795  0.38079339  0.87014986    -0.16400
C2767       C  0.94589241  0.36746846  0.86705993    -0.02000
C2768       C  0.94546248  0.34499497  0.85835513    -0.09500
C2769       C  0.86975087  0.35052050  0.84500034     0.64700
H2770       H  0.87716227  0.38791907  0.86415888     0.10200
C2771       C  0.97329698  0.37449106  0.87383814     0.63100
H2772       H  0.96393402  0.33167177  0.85749115     0.07600
F2773       F  0.85208928  0.25997385  0.86477245    -0.19900
F2774       F  0.89089606  0.24907969  0.87644309    -0.16100
F2775       F  0.87506721  0.21949175  0.86121711    -0.19600
F2776       F  0.96757077  0.32470108  0.83209340    -0.23000
F2777       F  0.92593716  0.33856766  0.82358805    -0.24500
F2778       F  0.94829921  0.30126213  0.81528771    -0.18500
F2779       F  0.97933842  0.35420316  0.88319016    -0.21000
F2780       F  0.97199441  0.40063072  0.87970721    -0.22100
F2781       F  0.99482769  0.37505564  0.86478547    -0.19300
F2782       F  0.86246294  0.37516584  0.83857176    -0.19400
F2783       F  0.84827967  0.34318581  0.85341270    -0.23200
F2784       F  0.87255636  0.32970190  0.83568262    -0.24800
C2785       C  0.07359509  0.36337734  0.90769082    -0.11600
C2786       C  0.08296113  0.37214066  0.89540037     0.10900
C2787       C  0.06432134  0.38581308  0.88650779    -0.03400
C2788       C  0.03701939  0.39192472  0.89069894    -0.06200
C2789       C  0.02749753  0.38322569  0.90299698    -0.17000
C2790       C  0.04586055  0.36862033  0.91166217     0.02000
C2791       C  0.11176747  0.36509641  0.89148383     0.11900
C2792       C  0.07313185  0.39397025  0.87267228     0.62500
H2793       H  0.02303151  0.40404556  0.88446631     0.11900
C2794       C  0.03638348  0.35924164  0.92511398     0.54700
H2795       H  0.08822905  0.35242575  0.91411244     0.07700
C2796       C  0.13307571  0.38565091  0.89120916    -0.06100
C2797       C  0.15448600  0.38273418  0.88190316    -0.06800
C2798       C  0.15501153  0.35931375  0.87361904    -0.16400
C2799       C  0.13805615  0.33574537  0.87654484    -0.02000
C2800       C  0.11581427  0.33935066  0.88524010    -0.09500
C2801       C  0.13250645  0.41059370  0.90040074     0.64700
H2802       H  0.16887099  0.39990186  0.88014254     0.10200
C2803       C  0.14139405  0.30740010  0.87001106     0.63100
H2804       H  0.10015215  0.32298375  0.88621655     0.07600
F2805       F  0.05777466  0.34610592  0.93210847    -0.19900
F2806       F  0.01457542  0.34042727  0.92375888    -0.16100
F2807       F  0.02749292  0.38222503  0.93223822    -0.19600
F2808       F  0.08315883  0.37067818  0.86609749    -0.23000
F2809       F  0.09392346  0.41412384  0.87313875    -0.24500
F2810       F  0.05083979  0.40483123  0.86543917    -0.18500
F2811       F  0.16651364  0.30508751  0.86330944    -0.21000
F2812       F  0.11927184  0.30308692  0.86139547    -0.22100
F2813       F  0.14114430  0.28660331  0.87950740    -0.19300
F2814       F  0.15503879  0.42833989  0.89829063    -0.19400
F2815       F  0.13401147  0.40090067  0.91317818    -0.23200
F2816       F  0.10798473  0.42597795  0.89878456    -0.24800
C2817       C  0.57502471  0.64439554  0.87276937    -0.11600
C2818       C  0.58676155  0.66161214  0.88246172     0.10900
C2819       C  0.61503350  0.67034904  0.88149057    -0.03400
C2820       C  0.63023854  0.66276262  0.87024814    -0.06200
C2821       C  0.61778358  0.64700817  0.86017032    -0.17000
C2822       C  0.59013415  0.63674701  0.86161687     0.02000
C2823       C  0.56958668  0.66563242  0.89427368     0.11900
C2824       C  0.62876289  0.68785355  0.89212566     0.62500
H2825       H  0.65161499  0.67003548  0.86898156     0.11900
C2826       C  0.57683130  0.61729743  0.85161707     0.54700
H2827       H  0.55372769  0.63687843  0.87407262     0.07700
C2828       C  0.54447749  0.68180956  0.89393402    -0.06100
C2829       C  0.52240151  0.67400465  0.90224142    -0.06800
C2830       C  0.52531074  0.65106925  0.91081263    -0.16400
C2831       C  0.55237678  0.63922082  0.91301626    -0.02000
C2832       C  0.57379922  0.64585497  0.90426326    -0.09500
C2833       C  0.54064335  0.70638017  0.88455906     0.64700
H2834       H  0.50198271  0.68396820  0.90115486     0.10200
C2835       C  0.55914327  0.61810753  0.92374935     0.63100
H2836       H  0.59317586  0.63372237  0.90455986     0.07600
F2837       F  0.56958836  0.63232636  0.84050147    -0.19900
F2838       F  0.55270295  0.60482521  0.85640215    -0.16100
F2839       F  0.59554829  0.59611059  0.84836367    -0.19600
F2840       F  0.62961150  0.67294645  0.90376795    -0.23000
F2841       F  0.61356306  0.71233063  0.89394055    -0.24500
F2842       F  0.65605099  0.69510096  0.88893477    -0.18500
F2843       F  0.56098755  0.59152433  0.91839804    -0.21000
F2844       F  0.53919852  0.61826582  0.93356501    -0.22100
F2845       F  0.58479008  0.62461541  0.92944013    -0.19300
F2846       F  0.51445945  0.71891487  0.88588639    -0.19400
F2847       F  0.54337227  0.69768749  0.87172873    -0.23200
F2848       F  0.56071371  0.72645125  0.88722657    -0.24800
C2849       C  0.60979833  0.78321944  0.85192886    -0.11600
C2850       C  0.62023628  0.80798597  0.84629299     0.10900
C2851       C  0.63138523  0.80776674  0.83352582    -0.03400
C2852       C  0.63447426  0.78185394  0.82730963    -0.06200
C2853       C  0.62651737  0.75668906  0.83344704    -0.17000
C2854       C  0.61274173  0.75727474  0.84564641     0.02000
C2855       C  0.62611630  0.83118496  0.85529259     0.11900
C2856       C  0.64150194  0.83445400  0.82684735     0.62500
H2857       H  0.64576997  0.78083639  0.81815844     0.11900
C2858       C  0.60413645  0.73045827  0.85257847     0.54700
H2859       H  0.60188169  0.78400406  0.86185440     0.07700
C2860       C  0.60469852  0.84885807  0.86011297    -0.06100
C2861       C  0.61122187  0.86659268  0.87060028    -0.06800
C2862       C  0.63791572  0.86599602  0.87653327    -0.16400
C2863       C  0.65950859  0.84884985  0.87153236    -0.02000
C2864       C  0.65329933  0.83188594  0.86074922    -0.09500
C2865       C  0.57489294  0.84772304  0.85474015     0.64700
H2866       H  0.59497436  0.87968583  0.87486287     0.10200
C2867       C  0.68800542  0.84673798  0.87822362     0.63100
H2868       H  0.66904652  0.81741865  0.85707621     0.07600
F2869       F  0.59209532  0.73577634  0.86462756    -0.19900
F2870       F  0.62756205  0.71368185  0.85460477    -0.16100
F2871       F  0.58475409  0.71618065  0.84499773    -0.19600
F2872       F  0.66368055  0.84596571  0.83375399    -0.23000
F2873       F  0.61978230  0.85379745  0.82619472    -0.24500
F2874       F  0.65049724  0.82939080  0.81419172    -0.18500
F2875       F  0.68494447  0.83437360  0.89041705    -0.21000
F2876       F  0.69933060  0.87323397  0.87972561    -0.22100
F2877       F  0.70677154  0.83071434  0.87105262    -0.19300
F2878       F  0.55785855  0.86807969  0.86028702    -0.19400
F2879       F  0.56337578  0.82171284  0.85735757    -0.23200
F2880       F  0.57494867  0.85202207  0.84135593    -0.24800
C2881       C  0.81243228  0.55311312  0.88779206    -0.11600
C2882       C  0.83029448  0.56576368  0.87847848     0.10900
C2883       C  0.85982193  0.56380281  0.88084888    -0.03400
C2884       C  0.87022332  0.54787726  0.89176496    -0.06200
C2885       C  0.85237826  0.53345604  0.90049169    -0.17000
C2886       C  0.82290163  0.53655857  0.89846646     0.02000
C2887       C  0.81757391  0.57802415  0.86577038     0.11900
C2888       C  0.88040802  0.57759642  0.87154668     0.62500
H2889       H  0.89267428  0.54492319  0.89303751     0.11900
C2890       C  0.80259206  0.52055111  0.90708641     0.54700
H2891       H  0.78996839  0.55463572  0.88610481     0.07700
C2892       C  0.80805729  0.56051026  0.85537441    -0.06100
C2893       C  0.79416310  0.57250828  0.84423733    -0.06800
C2894       C  0.78988648  0.60166932  0.84269911    -0.16400
C2895       C  0.80108403  0.61937557  0.85268469    -0.02000
C2896       C  0.81449636  0.60734564  0.86400334    -0.09500
C2897       C  0.81204534  0.52889534  0.85617670     0.64700
H2898       H  0.78505782  0.55887041  0.83690225     0.10200
C2899       C  0.79856418  0.65105724  0.85136936     0.63100
H2900       H  0.82207071  0.62084811  0.87175233     0.07600
F2901       F  0.80459699  0.49211247  0.90447178    -0.19900
F2902       F  0.77502592  0.52898249  0.90496592    -0.16100
F2903       F  0.80912126  0.52504355  0.92013513    -0.19600
F2904       F  0.87711863  0.60644793  0.87203616    -0.23000
F2905       F  0.87558240  0.56862056  0.85887101    -0.24500
F2906       F  0.90804123  0.57117879  0.87477194    -0.18500
F2907       F  0.77057340  0.65903309  0.85114677    -0.21000
F2908       F  0.81113561  0.65959128  0.83983742    -0.22100
F2909       F  0.81159474  0.66483280  0.86165193    -0.19300
F2910       F  0.80456314  0.51587932  0.84457995    -0.19400
F2911       F  0.79559528  0.51801808  0.86607531    -0.23200
F2912       F  0.83995675  0.52250117  0.85873601    -0.24800
C2913       C  0.01620998  0.21207691  0.95615363    -0.11600
C2914       C  0.02747126  0.23739131  0.95127864     0.10900
C2915       C  0.05600029  0.23754629  0.94729839    -0.03400
C2916       C  0.07183046  0.21239048  0.94794337    -0.06200
C2917       C  0.06022832  0.18650978  0.95192407    -0.17000
C2918       C  0.03186264  0.18648341  0.95632758     0.02000
C2919       C  0.00875904  0.26300218  0.94954470     0.11900
C2920       C  0.06947218  0.26396321  0.94179860     0.62500
H2921       H  0.09349102  0.21252448  0.94472215     0.11900
C2922       C  0.01774224  0.15953393  0.96068594     0.54700
H2923       H  0.99457184  0.21233383  0.95939638     0.07700
C2924       C  0.98964124  0.26563485  0.93890710    -0.06100
C2925       C  0.97507787  0.29134962  0.93693475    -0.06800
C2926       C  0.97858201  0.31500142  0.94516398    -0.16400
C2927       C  0.99715314  0.31179793  0.95616302    -0.02000
C2928       C  0.01163238  0.28585669  0.95812519    -0.09500
C2929       C  0.98472850  0.24131684  0.92955751     0.64700
H2930       H  0.96068237  0.29304425  0.92872390     0.10200
C2931       C  0.00226960  0.33542785  0.96580116     0.63100
H2932       H  0.02596476  0.28329283  0.96632764     0.07600
F2933       F  0.98974642  0.16382052  0.96381481    -0.19900
F2934       F  0.03132495  0.14903796  0.97168232    -0.16100
F2935       F  0.01884668  0.13985152  0.95076831    -0.19600
F2936       F  0.07044487  0.28449483  0.95131632    -0.23000
F2937       F  0.05401765  0.27378047  0.93119418    -0.24500
F2938       F  0.09671494  0.25909122  0.93761007    -0.18500
F2939       F  0.97732884  0.34231217  0.97193315    -0.21000
F2940       F  0.01278115  0.35862470  0.95929204    -0.22100
F2941       F  0.02152386  0.32794021  0.97545092    -0.19300
F2942       F  0.96706259  0.24877327  0.91927461    -0.19400
F2943       F  0.97245039  0.21923916  0.93621119    -0.23200
F2944       F  0.00998425  0.23237774  0.92431404    -0.24800
C2945       C  0.99460425  0.15409841  0.89032340    -0.11600
C2946       C  0.97067698  0.14649340  0.89747804     0.10900
C2947       C  0.97274093  0.13962014  0.91087528    -0.03400
C2948       C  0.99960504  0.13679887  0.91633428    -0.06200
C2949       C  0.02362303  0.14076094  0.90866102    -0.17000
C2950       C  0.02146726  0.15146288  0.89581915     0.02000
C2951       C  0.94468580  0.14268781  0.89001783     0.11900
C2952       C  0.94683382  0.13431951  0.91909157     0.62500
H2953       H  0.00210592  0.12903374  0.92626707     0.11900
C2954       C  0.04738839  0.15842682  0.88785675     0.54700
H2955       H  0.99213711  0.16019286  0.88013743     0.07700
C2956       C  0.93002410  0.16588197  0.88469651    -0.06100
C2957       C  0.91258458  0.16129991  0.87387032    -0.06800
C2958       C  0.90992330  0.13457279  0.86826891    -0.16400
C2959       C  0.92224464  0.11091686  0.87442396    -0.02000
C2960       C  0.93952885  0.11542293  0.88538653    -0.09500
C2961       C  0.93345613  0.19585988  0.88949623     0.64700
H2962       H  0.90257158  0.17912368  0.86914000     0.10200
C2963       C  0.91896188  0.08162617  0.86883922     0.63100
H2964       H  0.95131311  0.09805403  0.88963764     0.07600
F2965       F  0.04045400  0.16867901  0.87553628    -0.19900
F2966       F  0.06391011  0.13466575  0.88630917    -0.16100
F2967       F  0.06273019  0.17877022  0.89432163    -0.19600
F2968       F  0.93296322  0.11075836  0.91460554    -0.23000
F2969       F  0.92894265  0.15726994  0.91824361    -0.24500
F2970       F  0.95365855  0.13010879  0.93216418    -0.18500
F2971       F  0.93296723  0.06162884  0.87635194    -0.21000
F2972       F  0.92974295  0.08080359  0.85628819    -0.22100
F2973       F  0.89078601  0.07459440  0.86845041    -0.19300
F2974       F  0.90748387  0.20622807  0.89317745    -0.19400
F2975       F  0.94389147  0.21230047  0.87944775    -0.23200
F2976       F  0.95137323  0.19816900  0.90015501    -0.24800
C2977       C  0.14677598  0.14897073  0.85640460    -0.11600
C2978       C  0.13891894  0.17719297  0.85728863     0.10900
C2979       C  0.12627510  0.18744985  0.86882016    -0.03400
C2980       C  0.12461944  0.16951571  0.87965403    -0.06200
C2981       C  0.13510935  0.14171966  0.87942403    -0.17000
C2982       C  0.14537038  0.13083666  0.86731045     0.02000
C2983       C  0.14933037  0.19709622  0.84737967     0.11900
C2984       C  0.11598571  0.21774152  0.86992741     0.62500
H2985       H  0.11613803  0.17787238  0.88863574     0.11900
C2986       C  0.15548091  0.10075203  0.86568004     0.54700
H2987       H  0.15587130  0.14186795  0.84729116     0.07700
C2988       C  0.17708722  0.20734232  0.84841908    -0.06100
C2989       C  0.18295587  0.23359902  0.84300262    -0.06800
C2990       C  0.16226916  0.24952651  0.83642284    -0.16400
C2991       C  0.13569333  0.23724301  0.83378089    -0.02000
C2992       C  0.12977828  0.21077637  0.83924752    -0.09500
C2993       C  0.20027596  0.19103509  0.85548577     0.64700
H2994       H  0.20368829  0.24243636  0.84440928     0.10200
C2995       C  0.11333588  0.25213141  0.82576459     0.63100
H2996       H  0.10895755  0.20183252  0.83829193     0.07600
F2997       F  0.17886392  0.09587615  0.87349804    -0.19900
F2998       F  0.16310455  0.09499677  0.85289070    -0.16100
F2999       F  0.13410757  0.08252735  0.86899094    -0.19600
F3000       F  0.09494238  0.22283192  0.86080659    -0.23000
F3001       F  0.13800550  0.23597944  0.86773933    -0.24500
F3002       F  0.10508905  0.22356216  0.88217254    -0.18500
F3003       F  0.09084882  0.23472522  0.82294805    -0.21000
F3004       F  0.12456812  0.26113077  0.81401755    -0.22100
F3005       F  0.10337463  0.27478302  0.83278249    -0.19300
F3006       F  0.22514391  0.20602164  0.85607712    -0.19400
F3007       F  0.20553023  0.16634688  0.84881557    -0.23200
F3008       F  0.19247691  0.18480608  0.86819150    -0.24800
C3009       C  0.46248670  0.88721809  0.87343531    -0.11600
C3010       C  0.45258963  0.87007144  0.88359923     0.10900
C3011       C  0.42441999  0.86090327  0.88366876    -0.03400
C3012       C  0.40709186  0.86835307  0.87301426    -0.06200
C3013       C  0.41754894  0.88427555  0.86252583    -0.17000
C3014       C  0.44515595  0.89503912  0.86295196     0.02000
C3015       C  0.47282025  0.86263650  0.89396576     0.11900
C3016       C  0.41326876  0.84247247  0.89462286     0.62500
H3017       H  0.38578948  0.86044764  0.87242713     0.11900
C3018       C  0.45733256  0.91404558  0.85242392     0.54700
H3019       H  0.48408331  0.89448157  0.87370062     0.07700
C3020       C  0.49695159  0.84620767  0.89119823    -0.06100
C3021       C  0.52144031  0.85100198  0.89849591    -0.06800
C3022       C  0.52115850  0.86996234  0.90893732    -0.16400
C3023       C  0.49514197  0.88009199  0.91368723    -0.02000
C3024       C  0.47153660  0.87796145  0.90558874    -0.09500
C3025       C  0.49814690  0.82488254  0.88026798     0.64700
H3026       H  0.54113542  0.84171074  0.89533889     0.10200
C3027       C  0.49183897  0.89410123  0.92687220     0.63100
H3028       H  0.45265844  0.88968029  0.90798167     0.07600
F3029       F  0.47607414  0.89881277  0.84492406    -0.19900
F3030       F  0.47151378  0.93609825  0.85822514    -0.16100
F3031       F  0.43689391  0.92558551  0.84429456    -0.19600
F3032       F  0.41006529  0.85829373  0.90583608    -0.23000
F3033       F  0.43178839  0.82057431  0.89719812    -0.24500
F3034       F  0.38745084  0.83100284  0.89140625    -0.18500
F3035       F  0.48743735  0.92260547  0.92514937    -0.21000
F3036       F  0.51517184  0.88984278  0.93482243    -0.22100
F3037       F  0.46882359  0.88280123  0.93320970    -0.19300
F3038       F  0.50814509  0.79959642  0.88521245    -0.19400
F3039       F  0.51608945  0.83421785  0.87063653    -0.23200
F3040       F  0.47209207  0.82005930  0.87471883    -0.24800
C3041       C  0.49038247  0.78186219  0.77642767    -0.11600
C3042       C  0.50483774  0.76936717  0.78706522     0.10900
C3043       C  0.49332098  0.77210165  0.79979511    -0.03400
C3044       C  0.46819007  0.78760031  0.80144741    -0.06200
C3045       C  0.45373861  0.80051607  0.79090171    -0.17000
C3046       C  0.46488101  0.79721531  0.77810052     0.02000
C3047       C  0.53179867  0.75319036  0.78482410     0.11900
C3048       C  0.50745199  0.75849794  0.81165687     0.62500
H3049       H  0.45954349  0.78986311  0.81118260     0.11900
C3050       C  0.45028791  0.81028086  0.76631572     0.54700
H3051       H  0.49928677  0.77945499  0.76675746     0.07700
C3052       C  0.53191373  0.72404685  0.78198367    -0.06100
C3053       C  0.55752715  0.70873279  0.78289521    -0.06800
C3054       C  0.58332645  0.72189185  0.78568733    -0.16400
C3055       C  0.58354725  0.75157808  0.78705226    -0.02000
C3056       C  0.55774915  0.76668784  0.78677539    -0.09500
C3057       C  0.50505671  0.70937883  0.77782439     0.64700
H3058       H  0.55752201  0.68613023  0.78170931     0.10200
C3059       C  0.61093148  0.76696868  0.78933649     0.63100
H3060       H  0.55751873  0.78909601  0.78858161     0.07600
F3061       F  0.46568412  0.80674124  0.75496798    -0.19900
F3062       F  0.44660370  0.83880044  0.76827852    -0.16100
F3063       F  0.42438103  0.79777071  0.76450278    -0.19600
F3064       F  0.53445049  0.76869700  0.81314473    -0.23000
F3065       F  0.50866903  0.72969859  0.81003738    -0.24500
F3066       F  0.49297405  0.76387645  0.82312046    -0.18500
F3067       F  0.62805939  0.76377034  0.77853714    -0.21000
F3068       F  0.62441004  0.75595061  0.80019521    -0.22100
F3069       F  0.60675092  0.79541189  0.79141068    -0.19300
F3070       F  0.50910366  0.68075124  0.77634200    -0.19400
F3071       F  0.49611197  0.72035130  0.76593445    -0.23200
F3072       F  0.48414383  0.71336682  0.78699464    -0.24800
C3073       C  0.41977609  0.74584073  0.85918967    -0.11600
C3074       C  0.41956169  0.72043453  0.85228241     0.10900
C3075       C  0.41776173  0.72053292  0.83844321    -0.03400
C3076       C  0.41419441  0.74643716  0.83201105    -0.06200
C3077       C  0.41155414  0.77147652  0.83908854    -0.17000
C3078       C  0.41525440  0.77151479  0.85278204     0.02000
C3079       C  0.41645213  0.69491671  0.86027053     0.11900
C3080       C  0.41811563  0.69423706  0.83008330     0.62500
H3081       H  0.41114720  0.74687229  0.82146999     0.11900
C3082       C  0.41220797  0.79837053  0.86058657     0.54700
H3083       H  0.42123370  0.74512804  0.86978792     0.07700
C3084       C  0.43988964  0.68160312  0.86615804    -0.06100
C3085       C  0.43502107  0.66214108  0.87618703    -0.06800
C3086       C  0.40764343  0.65605570  0.88040041    -0.16400
C3087       C  0.38414450  0.66758031  0.87379373    -0.02000
C3088       C  0.38899383  0.68706519  0.86370034    -0.09500
C3089       C  0.46973311  0.68850656  0.86207815     0.64700
H3090       H  0.45265418  0.65260710  0.88135287     0.10200
C3091       C  0.35440308  0.66046377  0.87790215     0.63100
H3092       H  0.37144380  0.69763381  0.85894024     0.07600
F3093       F  0.41713585  0.79385222  0.87378975    -0.19900
F3094       F  0.38524794  0.80906316  0.85912606    -0.16100
F3095       F  0.43127870  0.81795593  0.85609520    -0.19600
F3096       F  0.39361715  0.69313380  0.82273165    -0.23000
F3097       F  0.42022525  0.66968408  0.83730945    -0.24500
F3098       F  0.44081664  0.69536929  0.82168539    -0.18500
F3099       F  0.35054155  0.66724940  0.89093910    -0.21000
F3100       F  0.34988066  0.63201369  0.87623517    -0.22100
F3101       F  0.33452903  0.67498296  0.87053571    -0.19300
F3102       F  0.48937590  0.67287927  0.86908148    -0.19400
F3103       F  0.47515123  0.71666088  0.86415012    -0.23200
F3104       F  0.47310495  0.68261124  0.84893193    -0.24800
C3105       C  0.21664054  0.95035506  0.89141894    -0.11600
C3106       C  0.20165588  0.95004239  0.87941100     0.10900
C3107       C  0.17338604  0.95991238  0.87948293    -0.03400
C3108       C  0.16188928  0.97114799  0.89120518    -0.06200
C3109       C  0.17769779  0.97392244  0.90288235    -0.17000
C3110       C  0.20548338  0.96290620  0.90296286     0.02000
C3111       C  0.21679418  0.94183824  0.86678508     0.11900
C3112       C  0.15567802  0.95951274  0.86705279     0.62500
H3113       H  0.14084928  0.97991657  0.89105172     0.11900
C3114       C  0.22382021  0.96632093  0.91502983     0.54700
H3115       H  0.23807518  0.94255646  0.89143016     0.07700
C3116       C  0.23516283  0.96065348  0.86021226    -0.06100
C3117       C  0.24969818  0.95160713  0.84882247    -0.06800
C3118       C  0.24690388  0.92435358  0.84351015    -0.16400
C3119       C  0.22787108  0.90582677  0.84987804    -0.02000
C3120       C  0.21307799  0.91491035  0.86128414    -0.09500
C3121       C  0.23966015  0.99031783  0.86529545     0.64700
H3122       H  0.26465270  0.96558142  0.84423739     0.10200
C3123       C  0.22429241  0.87604648  0.84501029     0.63100
H3124       H  0.19907743  0.90060934  0.86627748     0.07600
F3125       F  0.22905064  0.99453646  0.91709814    -0.19900
F3126       F  0.24935683  0.95252926  0.91377145    -0.16100
F3127       F  0.21015527  0.95542653  0.92583403    -0.19600
F3128       F  0.15111064  0.93201703  0.86332930    -0.23000
F3129       F  0.16932590  0.97348911  0.85705048    -0.24500
F3130       F  0.12978262  0.97237678  0.86879102    -0.18500
F3131       F  0.24963465  0.86177368  0.84593691    -0.21000
F3132       F  0.21546090  0.87658264  0.83208168    -0.22100
F3133       F  0.20456386  0.86142593  0.85222805    -0.19300
F3134       F  0.25803267  0.00536436  0.85751351    -0.19400
F3135       F  0.25078945  0.98946382  0.87782765    -0.23200
F3136       F  0.21430440  0.00466230  0.86550923    -0.24800
C3137       C  0.05937686  0.53603113  0.99182913    -0.11600
C3138       C  0.03732280  0.51946289  0.99659579     0.10900
C3139       C  0.03957046  0.50800160  0.00943312    -0.03400
C3140       C  0.06221782  0.51633391  0.01759789    -0.06200
C3141       C  0.08341997  0.53435069  0.01305148    -0.17000
C3142       C  0.08274088  0.54303651  0.99971689     0.02000
C3143       C  0.01472563  0.51082478  0.98717022     0.11900
C3144       C  0.01876495  0.48624052  0.01428403     0.62500
H3145       H  0.06304791  0.50952597  0.02773067     0.11900
C3146       C  0.10671111  0.55961479  0.99374945     0.54700
H3147       H  0.05827940  0.54334908  0.98177022     0.07700
C3148       C  0.98850399  0.52501281  0.98556522    -0.06100
C3149       C  0.96819081  0.51387639  0.97672628    -0.06800
C3150       C  0.97412211  0.49018419  0.96897275    -0.16400
C3151       C  0.00188245  0.47847158  0.96960120    -0.02000
C3152       C  0.02097948  0.48829010  0.97901323    -0.09500
C3153       C  0.98241206  0.55208267  0.99285760     0.64700
H3154       H  0.94744946  0.52327658  0.97598372     0.10200
C3155       C  0.01348887  0.45616765  0.96046868     0.63100
H3156       H  0.04160285  0.47850963  0.97981963     0.07600
F3157       F  0.10382041  0.58778999  0.99671036    -0.19900
F3158       F  0.10707069  0.55686971  0.98025172    -0.16100
F3159       F  0.13224912  0.54982855  0.99854794    -0.19600
F3160       F  0.02174056  0.46193325  0.00703981    -0.23000
F3161       F  0.99148147  0.49596050  0.01293366    -0.24500
F3162       F  0.02317828  0.47962812  0.02735639    -0.18500
F3163       F  0.03809778  0.46588451  0.95489321    -0.21000
F3164       F  0.99543587  0.44937733  0.95038605    -0.22100
F3165       F  0.01973471  0.43214533  0.96759850    -0.19300
F3166       F  0.95583099  0.56247773  0.98994808    -0.19400
F3167       F  0.00189919  0.57217641  0.98933577    -0.23200
F3168       F  0.98408654  0.54777588  0.00622587    -0.24800
C3169       C  0.24733124  0.55643546  0.99837609    -0.11600
C3170       C  0.26763203  0.53615842  0.00177398     0.10900
C3171       C  0.26491212  0.52167243  0.01388155    -0.03400
C3172       C  0.24318344  0.52965800  0.02263125    -0.06200
C3173       C  0.22351026  0.55087709  0.01941755    -0.17000
C3174       C  0.22476544  0.56326965  0.00670152     0.02000
C3175       C  0.29141262  0.53101174  0.99238925     0.11900
C3176       C  0.28437871  0.49732023  0.01728055     0.62500
H3177       H  0.24184306  0.51982700  0.03219248     0.11900
C3178       C  0.20249885  0.58298497  0.00107646     0.54700
H3179       H  0.24888477  0.56683489  0.98893276     0.07700
C3180       C  0.28736256  0.51935226  0.97970961    -0.06100
C3181       C  0.30926224  0.52117927  0.97040243    -0.06800
C3182       C  0.33541929  0.53315530  0.97349018    -0.16400
C3183       C  0.34023162  0.54243010  0.98652069    -0.02000
C3184       C  0.31798154  0.54186822  0.99558744    -0.09500
C3185       C  0.25959009  0.50699130  0.97525266     0.64700
H3186       H  0.30526441  0.51476780  0.96038481     0.10200
C3187       C  0.36792454  0.55485005  0.99112286     0.63100
H3188       H  0.32110342  0.55119556  0.00515644     0.07600
F3189       F  0.19284782  0.57224969  0.98930673    -0.19900
F3190       F  0.21429423  0.60903263  0.99876101    -0.16100
F3191       F  0.17944244  0.58632598  0.00909775    -0.19600
F3192       F  0.31176699  0.50657189  0.01850529    -0.23000
F3193       F  0.28306670  0.47741813  0.00745490    -0.24500
F3194       F  0.27692868  0.48449573  0.02893907    -0.18500
F3195       F  0.36436347  0.58330789  0.99329170    -0.21000
F3196       F  0.38944511  0.55111480  0.98223133    -0.22100
F3197       F  0.37609496  0.54205670  0.00274623    -0.19300
F3198       F  0.26443595  0.48321192  0.96782372    -0.19400
F3199       F  0.24533844  0.52657935  0.96764879    -0.23200
F3200       F  0.24274833  0.49921555  0.98564302    -0.24800
C3201       C  0.28005344  0.24398793  0.25194834    -0.11600
C3202       C  0.26902866  0.27088630  0.25462976     0.10900
C3203       C  0.25238511  0.27465341  0.26594680    -0.03400
C3204       C  0.24687134  0.25125257  0.27402216    -0.06200
C3205       C  0.25673009  0.22406309  0.27108571    -0.17000
C3206       C  0.27413676  0.22041990  0.26000509     0.02000
C3207       C  0.27517602  0.29476940  0.24545332     0.11900
C3208       C  0.23924344  0.30297512  0.26914473     0.62500
H3209       H  0.23314064  0.25368406  0.28237210     0.11900
C3210       C  0.28528801  0.19167563  0.25640663     0.54700
H3211       H  0.29270973  0.24145786  0.24324027     0.07700
C3212       C  0.30038075  0.31022159  0.24636527    -0.06100
C3213       C  0.30468819  0.33277649  0.23765034    -0.06800
C3214       C  0.28574055  0.33948320  0.22733380    -0.16400
C3215       C  0.26022029  0.32393808  0.22650310    -0.02000
C3216       C  0.25537489  0.30206165  0.23570431    -0.09500
C3217       C  0.32319974  0.30224084  0.25622528     0.64700
H3218       H  0.32400373  0.34453752  0.23853055     0.10200
C3219       C  0.23825208  0.32982416  0.21596701     0.63100
H3220       H  0.23620156  0.28991969  0.23521212     0.07600
F3221       F  0.30395610  0.19300075  0.24605653    -0.19900
F3222       F  0.26313139  0.17464483  0.25281201    -0.16100
F3223       F  0.29921243  0.17988398  0.26703422    -0.19600
F3224       F  0.21971425  0.31007173  0.25959036    -0.23000
F3225       F  0.25965140  0.32352431  0.26966183    -0.24500
F3226       F  0.22567323  0.30256549  0.28111304    -0.18500
F3227       F  0.24951411  0.32512843  0.20370409    -0.21000
F3228       F  0.22911327  0.35739402  0.21688446    -0.22100
F3229       F  0.21501791  0.31262104  0.21721031    -0.19300
F3230       F  0.34609776  0.32004884  0.25556879    -0.19400
F3231       F  0.33266911  0.27528579  0.25374047    -0.23200
F3232       F  0.31270866  0.30331824  0.26880980    -0.24800
C3233       C  0.27562132  0.49050099  0.23748995    -0.11600
C3234       C  0.29571462  0.51135837  0.23999719     0.10900
C3235       C  0.31827391  0.51503538  0.23120365    -0.03400
C3236       C  0.31990065  0.49767814  0.22013816    -0.06200
C3237       C  0.30125606  0.47512157  0.21801614    -0.17000
C3238       C  0.27809804  0.47194263  0.22671499     0.02000
C3239       C  0.29454196  0.52754129  0.25246063     0.11900
C3240       C  0.34202487  0.53554116  0.23406567     0.62500
H3241       H  0.33726342  0.50051157  0.21345747     0.11900
C3242       C  0.25675574  0.44858505  0.22510081     0.54700
H3243       H  0.25863274  0.48811602  0.24442152     0.07700
C3244       C  0.28187417  0.55446391  0.25327034    -0.06100
C3245       C  0.28725595  0.57108580  0.26442555    -0.06800
C3246       C  0.30457499  0.56140023  0.27474394    -0.16400
C3247       C  0.31471236  0.53323463  0.27445034    -0.02000
C3248       C  0.30962112  0.51689578  0.26323332    -0.09500
C3249       C  0.26300438  0.56553327  0.24234118     0.64700
H3250       H  0.27907208  0.59234093  0.26485987     0.10200
C3251       C  0.33197752  0.52047449  0.28555330     0.63100
H3252       H  0.31888111  0.49610795  0.26247710     0.07600
F3253       F  0.23652632  0.44918516  0.23481087    -0.19900
F3254       F  0.27016475  0.42275141  0.22573501    -0.16100
F3255       F  0.24312614  0.45145750  0.21316321    -0.19600
F3256       F  0.35702722  0.52633529  0.24492087    -0.23000
F3257       F  0.33153343  0.56211546  0.23651135    -0.24500
F3258       F  0.36051295  0.53768871  0.22368424    -0.18500
F3259       F  0.33098573  0.49139945  0.28529214    -0.21000
F3260       F  0.32169354  0.52902411  0.29755546    -0.22100
F3261       F  0.35974578  0.52858735  0.28437451    -0.19300
F3262       F  0.25381953  0.59266588  0.24476884    -0.19400
F3263       F  0.23970529  0.54843141  0.24122150    -0.23200
F3264       F  0.27713659  0.56568016  0.23054545    -0.24800
C3265       C  0.17508451  0.47454891  0.11194718    -0.11600
C3266       C  0.20410344  0.46939023  0.11339898     0.10900
C3267       C  0.22196463  0.47702720  0.10283516    -0.03400
C3268       C  0.21050532  0.49126474  0.09168651    -0.06200
C3269       C  0.18163435  0.49789406  0.09052027    -0.17000
C3270       C  0.16364975  0.48884820  0.10082825     0.02000
C3271       C  0.21559603  0.45691362  0.12615127     0.11900
C3272       C  0.25335002  0.47105337  0.10362362     0.62500
H3273       H  0.22442180  0.49898832  0.08413815     0.11900
C3274       C  0.13234949  0.49513570  0.10021537     0.54700
H3275       H  0.16148757  0.46823439  0.11989357     0.07700
C3276       C  0.22288638  0.47380081  0.13712581    -0.06100
C3277       C  0.23826903  0.46171589  0.14779069    -0.06800
C3278       C  0.24569143  0.43301925  0.14814843    -0.16400
C3279       C  0.23585459  0.41568940  0.13777046    -0.02000
C3280       C  0.22095612  0.42785456  0.12702083    -0.09500
C3281       C  0.21453378  0.50460224  0.13746672     0.64700
H3282       H  0.24581404  0.47494797  0.15565220     0.10200
C3283       C  0.24221589  0.38442052  0.13783277     0.63100
H3284       H  0.21465641  0.41488725  0.11883238     0.07600
F3285       F  0.12773837  0.52385049  0.10019681    -0.19900
F3286       F  0.11821506  0.48375849  0.11079407    -0.16100
F3287       F  0.12116627  0.48383224  0.08887912    -0.19600
F3288       F  0.25795094  0.44254390  0.10528047    -0.23000
F3289       F  0.26503478  0.48521709  0.11411293    -0.24500
F3290       F  0.26711830  0.47942582  0.09236632    -0.18500
F3291       F  0.22807327  0.37060499  0.12788739    -0.21000
F3292       F  0.23403282  0.37279817  0.14964710    -0.22100
F3293       F  0.27072758  0.37999019  0.13619371    -0.19300
F3294       F  0.22406211  0.51765729  0.14873127    -0.19400
F3295       F  0.18552506  0.50688249  0.13710749    -0.23200
F3296       F  0.22555093  0.51866320  0.12680334    -0.24800
C3297       C  0.48242185  0.03475300  0.99415887    -0.11600
C3298       C  0.50251655  0.01462854  0.99801616     0.10900
C3299       C  0.49775679  0.99885775  0.00967046    -0.03400
C3300       C  0.47449543  0.00579798  0.01765554    -0.06200
C3301       C  0.45509517  0.02667994  0.01392375    -0.17000
C3302       C  0.45778307  0.03935092  0.00137526     0.02000
C3303       C  0.52677937  0.00903746  0.98900848     0.11900
C3304       C  0.51713209  0.97493119  0.01373124     0.62500
H3305       H  0.47232108  0.99617420  0.02722796     0.11900
C3306       C  0.43507470  0.05784150  0.99524901     0.54700
H3307       H  0.48558060  0.04650370  0.98517276     0.07700
C3308       C  0.52251509  0.99693915  0.97647526    -0.06100
C3309       C  0.54585642  0.99278770  0.96827266    -0.06800
C3310       C  0.57349985  0.99802688  0.97246638    -0.16400
C3311       C  0.57805309  0.00884045  0.98517342    -0.02000
C3312       C  0.55445154  0.01559486  0.99300987    -0.09500
C3313       C  0.49367151  0.98693472  0.97198372     0.64700
H3314       H  0.54279612  0.98373909  0.95866001     0.10200
C3315       C  0.60771183  0.01217807  0.99045979     0.63100
H3316       H  0.55751369  0.02516105  0.00250936     0.07600
F3317       F  0.42920588  0.04840403  0.98272554    -0.19900
F3318       F  0.44442281  0.08526180  0.99448053    -0.16100
F3319       F  0.41019465  0.05722005  0.00222367    -0.19600
F3320       F  0.54327240  0.98525079  0.01711102    -0.23000
F3321       F  0.51995004  0.95619896  0.00349549    -0.24500
F3322       F  0.50670548  0.96035397  0.02440520    -0.18500
F3323       F  0.60786902  0.02241189  0.00313366    -0.21000
F3324       F  0.62242386  0.03061011  0.98258026    -0.22100
F3325       F  0.62133256  0.98640357  0.99053389    -0.19300
F3326       F  0.49538784  0.97043988  0.96087698    -0.19400
F3327       F  0.47654580  0.00966311  0.96906893    -0.23200
F3328       F  0.48132210  0.97094491  0.98171242    -0.24800
C3329       C  0.26826031  0.02277194  0.97949138    -0.11600
C3330       C  0.25796614  0.01411437  0.99170161     0.10900
C3331       C  0.22932609  0.00598669  0.99262700    -0.03400
C3332       C  0.21134087  0.00988521  0.98168948    -0.06200
C3333       C  0.22126268  0.02073034  0.96976245    -0.17000
C3334       C  0.25064280  0.02532201  0.96840151     0.02000
C3335       C  0.27562859  0.02030312  0.00353776     0.11900
C3336       C  0.21645402  0.99519136  0.00522281     0.62500
H3337       H  0.18899555  0.00612130  0.98276658     0.11900
C3338       C  0.26349942  0.03506065  0.95561556     0.54700
H3339       H  0.28993862  0.02955755  0.97884793     0.07700
C3340       C  0.30094624  0.00586696  0.00666272    -0.06100
C3341       C  0.31813619  0.01616492  0.01690887    -0.06800
C3342       C  0.31024414  0.03958496  0.02451134    -0.16400
C3343       C  0.28318044  0.05187178  0.02222686    -0.02000
C3344       C  0.26697320  0.04256657  0.01151635    -0.09500
C3345       C  0.30918667  0.97913822  0.99956488     0.64700
H3346       H  0.33824842  0.00618391  0.01885960     0.10200
C3347       C  0.27056895  0.07406634  0.03114635     0.63100
H3348       H  0.24728530  0.05300660  0.00912954     0.07600
F3349       F  0.29160639  0.02738567  0.95497029    -0.19900
F3350       F  0.26161505  0.06399543  0.95468873    -0.16100
F3351       F  0.24983333  0.02299309  0.94505528    -0.19600
F3352       F  0.20021015  0.01619670  0.01071734    -0.23000
F3353       F  0.23655784  0.98656132  0.01424947    -0.24500
F3354       F  0.19949748  0.97235737  0.00253995    -0.18500
F3355       F  0.28351971  0.09965774  0.02914415    -0.21000
F3356       F  0.27370375  0.06579434  0.04408235    -0.22100
F3357       F  0.24206428  0.07781750  0.02880242    -0.19300
F3358       F  0.33316733  0.96696644  0.00493056    -0.19400
F3359       F  0.31433910  0.98472900  0.98651389    -0.23200
F3360       F  0.28756159  0.95990922  0.00049703    -0.24800
C3361       C  0.38102800  0.19939499  0.12447640    -0.11600
C3362       C  0.40452611  0.19733817  0.13279337     0.10900
C3363       C  0.42246891  0.17363569  0.13226867    -0.03400
C3364       C  0.41794456  0.15400354  0.12224020    -0.06200
C3365       C  0.39619521  0.15782079  0.11306042    -0.17000
C3366       C  0.37663385  0.17993176  0.11446424     0.02000
C3367       C  0.40919925  0.22085904  0.14180201     0.11900
C3368       C  0.44595821  0.16920295  0.14222231     0.62500
H3369       H  0.43195234  0.13617208  0.12115768     0.11900
C3370       C  0.35206550  0.18352441  0.10503425     0.54700
H3371       H  0.36702396  0.21730182  0.12545099     0.07700
C3372       C  0.42152814  0.24625645  0.13743739    -0.06100
C3373       C  0.41792929  0.27040699  0.14509095    -0.06800
C3374       C  0.40165802  0.26969368  0.15648702    -0.16400
C3375       C  0.39310054  0.24354758  0.16173654    -0.02000
C3376       C  0.39629293  0.21950461  0.15405779    -0.09500
C3377       C  0.43654030  0.24836058  0.12435087     0.64700
H3378       H  0.42547385  0.29045606  0.14156824     0.10200
C3379       C  0.38036771  0.24000840  0.17522942     0.63100
H3380       H  0.38746343  0.19976744  0.15738398     0.07600
F3381       F  0.33338000  0.20395750  0.10922164    -0.19900
F3382       F  0.33759464  0.15848092  0.10395573    -0.16100
F3383       F  0.36186893  0.19126705  0.09283881    -0.19600
F3384       F  0.43460964  0.16705444  0.15461788    -0.23000
F3385       F  0.46441306  0.19151736  0.14200907    -0.24500
F3386       F  0.46111541  0.14489212  0.13976115    -0.18500
F3387       F  0.39478160  0.21900968  0.18190585    -0.21000
F3388       F  0.35246131  0.23233355  0.17399254    -0.22100
F3389       F  0.38203443  0.26412805  0.18269936    -0.19300
F3390       F  0.44783835  0.27477193  0.12237176    -0.19400
F3391       F  0.41797858  0.24306761  0.11420101    -0.23200
F3392       F  0.45829420  0.22911368  0.12388097    -0.24800
C3393       C  0.28531649  0.79716088  0.24179204    -0.11600
C3394       C  0.27862976  0.77046558  0.23681131     0.10900
C3395       C  0.26764369  0.76840764  0.22391405    -0.03400
C3396       C  0.26277590  0.79325442  0.21663552    -0.06200
C3397       C  0.26786672  0.81999410  0.22188157    -0.17000
C3398       C  0.28033383  0.82202478  0.23447113     0.02000
C3399       C  0.28379771  0.74504149  0.24524787     0.11900
C3400       C  0.25993456  0.74016653  0.21806106     0.62500
H3401       H  0.25309818  0.79208541  0.20702764     0.11900
C3402       C  0.28857219  0.85029566  0.24002531     0.54700
H3403       H  0.29406122  0.79838569  0.25159391     0.07700
C3404       C  0.31065170  0.73239505  0.24619022    -0.06100
C3405       C  0.31426118  0.70862445  0.25431349    -0.06800
C3406       C  0.29268736  0.69806810  0.26245883    -0.16400
C3407       C  0.26553057  0.71080313  0.26137446    -0.02000
C3408       C  0.26160831  0.73385372  0.25265476    -0.09500
C3409       C  0.33579850  0.74479160  0.23908202     0.64700
H3410       H  0.33488993  0.69908491  0.25483730     0.10200
C3411       C  0.24076037  0.70067257  0.26938508     0.63100
H3412       H  0.24122844  0.74399189  0.25181494     0.07600
F3413       F  0.30501056  0.86451502  0.23105925    -0.19900
F3414       F  0.30392328  0.84745569  0.25153822    -0.16100
F3415       F  0.26473768  0.86600980  0.24259938    -0.19600
F3416       F  0.23868984  0.72807330  0.22531037    -0.23000
F3417       F  0.28302983  0.72242401  0.21814509    -0.24500
F3418       F  0.25062708  0.74277716  0.20523427    -0.18500
F3419       F  0.24540167  0.70640386  0.28248179    -0.21000
F3420       F  0.23725838  0.67207469  0.26766812    -0.22100
F3421       F  0.21590751  0.71387182  0.26569608    -0.19300
F3422       F  0.35991930  0.72880248  0.24090860    -0.19400
F3423       F  0.34108490  0.77146911  0.24377120    -0.23200
F3424       F  0.33047211  0.74644094  0.22578009    -0.24800
C3425       C  0.26075094  0.05525012  0.25230567    -0.11600
C3426       C  0.24618905  0.02974235  0.25156145     0.10900
C3427       C  0.22913671  0.02143855  0.26224636    -0.03400
C3428       C  0.22600457  0.03983613  0.27294646    -0.06200
C3429       C  0.23883449  0.06646733  0.27332938    -0.17000
C3430       C  0.25705051  0.07409104  0.26285501     0.02000
C3431       C  0.24734767  0.01298114  0.23915328     0.11900
C3432       C  0.21347309  0.99362770  0.26217615     0.62500
H3433       H  0.21254543  0.03384033  0.28099876     0.11900
C3434       C  0.27157144  0.10239627  0.26235549     0.54700
H3435       H  0.27440376  0.06071266  0.24424734     0.07700
C3436       C  0.23185534  0.02100716  0.22781250    -0.06100
C3437       C  0.22938490  0.00171887  0.21740508    -0.06800
C3438       C  0.24171417  0.97470980  0.21793031    -0.16400
C3439       C  0.25876706  0.96755065  0.22894905    -0.02000
C3440       C  0.26188688  0.98723624  0.23918439    -0.09500
C3441       C  0.21753851  0.04961530  0.22679534     0.64700
H3442       H  0.21673392  0.00721992  0.20890671     0.10200
C3443       C  0.27185995  0.93855865  0.23045215     0.63100
H3444       H  0.27444160  0.98199457  0.24774054     0.07600
F3445       F  0.25188438  0.12371610  0.26347972    -0.19900
F3446       F  0.28573220  0.10646721  0.25068483    -0.16100
F3447       F  0.29095505  0.10413197  0.27246384    -0.19600
F3448       F  0.23244379  0.97152911  0.26214813    -0.23000
F3449       F  0.19645690  0.99201852  0.25116924    -0.24500
F3450       F  0.19659457  0.99051480  0.27308845    -0.18500
F3451       F  0.28591039  0.93545298  0.24228942    -0.21000
F3452       F  0.29101694  0.93403677  0.22053476    -0.22100
F3453       F  0.25106388  0.91836313  0.22991526    -0.19300
F3454       F  0.20151999  0.05221457  0.21547951    -0.19400
F3455       F  0.23767135  0.07046968  0.22659290    -0.23200
F3456       F  0.19995702  0.05380522  0.23736866    -0.24800
C3457       C  0.11410300  0.73935195  0.14252593    -0.11600
C3458       C  0.12835642  0.71479758  0.14639680     0.10900
C3459       C  0.14488477  0.71468761  0.15792114    -0.03400
C3460       C  0.15057781  0.74039145  0.16391729    -0.06200
C3461       C  0.13888396  0.76556025  0.15910864    -0.17000
C3462       C  0.11835424  0.76484487  0.14901291     0.02000
C3463       C  0.13279454  0.69365901  0.13613666     0.11900
C3464       C  0.15947938  0.68853839  0.16311452     0.62500
H3465       H  0.16544700  0.74102596  0.17201397     0.11900
C3466       C  0.10312969  0.79105135  0.14420820     0.54700
H3467       H  0.10196633  0.73910165  0.13351469     0.07700
C3468       C  0.11066277  0.67718608  0.13108607    -0.06100
C3469       C  0.11524394  0.66266257  0.11934422    -0.06800
C3470       C  0.14121164  0.66404034  0.11288822    -0.16400
C3471       C  0.16377810  0.67912841  0.11834665    -0.02000
C3472       C  0.15916106  0.69382579  0.12998628    -0.09500
C3473       C  0.08277684  0.67464675  0.13820264     0.64700
H3474       H  0.09840759  0.65061559  0.11493220     0.10200
C3475       C  0.19197210  0.68076999  0.11150571     0.63100
H3476       H  0.17564568  0.70693419  0.13399350     0.07600
F3477       F  0.08415921  0.78520670  0.13425055    -0.19900
F3478       F  0.12250325  0.80998655  0.13950094    -0.16100
F3479       F  0.08823795  0.80308477  0.15436096    -0.19600
F3480       F  0.18729837  0.68860099  0.15923900    -0.23000
F3481       F  0.14673969  0.66431831  0.15862175    -0.24500
F3482       F  0.15849958  0.68813833  0.17666494    -0.18500
F3483       F  0.21113145  0.69673757  0.11847283    -0.21000
F3484       F  0.18847109  0.69281070  0.09923924    -0.22100
F3485       F  0.20308307  0.65404671  0.11014533    -0.19300
F3486       F  0.06472505  0.65633166  0.13190486    -0.19400
F3487       F  0.06943585  0.70043947  0.13895519    -0.23200
F3488       F  0.08756765  0.66460104  0.15075500    -0.24800
C3489       C  0.32189602  0.92473875  0.13036093    -0.11600
C3490       C  0.31854794  0.95268097  0.12593740     0.10900
C3491       C  0.30201140  0.97117072  0.13370358    -0.03400
C3492       C  0.28873511  0.96086991  0.14518914    -0.06200
C3493       C  0.29127618  0.93271826  0.14939599    -0.17000
C3494       C  0.30872584  0.91452677  0.14193607     0.02000
C3495       C  0.33234561  0.96224713  0.11322429     0.11900
C3496       C  0.29718285  0.00150518  0.12955531     0.62500
H3497       H  0.27461786  0.97445590  0.15057458     0.11900
C3498       C  0.31246629  0.88402807  0.14594437     0.54700
H3499       H  0.33425530  0.91059947  0.12440536     0.07700
C3500       C  0.36144833  0.96869569  0.11240585    -0.06100
C3501       C  0.37199533  0.98182726  0.10091674    -0.06800
C3502       C  0.35479624  0.98855935  0.09002268    -0.16400
C3503       C  0.32630516  0.97959297  0.09038167    -0.02000
C3504       C  0.31568450  0.96660533  0.10190494    -0.09500
C3505       C  0.38112129  0.96294163  0.12388265     0.64700
H3506       H  0.39360557  0.98891812  0.10073270     0.10200
C3507       C  0.30601438  0.98369222  0.07902221     0.63100
H3508       H  0.29369218  0.96074478  0.10222569     0.07600
F3509       F  0.33079273  0.86990436  0.13775730    -0.19900
F3510       F  0.28687677  0.87045574  0.14550160    -0.16100
F3511       F  0.32315720  0.88262504  0.15856196    -0.19600
F3512       F  0.28024884  0.00234720  0.11850443    -0.23000
F3513       F  0.32255933  0.01427731  0.12681638    -0.24500
F3514       F  0.28409276  0.01690857  0.13927523    -0.18500
F3515       F  0.29604785  0.95774227  0.07514563    -0.21000
F3516       F  0.31827011  0.99635288  0.06828115    -0.22100
F3517       F  0.28354701  0.00009904  0.08298398    -0.19300
F3518       F  0.40835780  0.97139309  0.12128456    -0.19400
F3519       F  0.38184587  0.93446293  0.12657540    -0.23200
F3520       F  0.37186821  0.97720631  0.13483032    -0.24800
C3521       C  0.78289607  0.30887367  0.24663821    -0.11600
C3522       C  0.76650724  0.28664373  0.25126886     0.10900
C3523       C  0.75579461  0.28779164  0.26420285    -0.03400
C3524       C  0.76277015  0.31098126  0.27224130    -0.06200
C3525       C  0.78005654  0.33288553  0.26771584    -0.17000
C3526       C  0.78912711  0.33233299  0.25445434     0.02000
C3527       C  0.75999418  0.26308013  0.24209551     0.11900
C3528       C  0.73779077  0.26413421  0.26954737     0.62500
H3529       H  0.75641150  0.31113624  0.28241278     0.11900
C3530       C  0.80695532  0.35534533  0.24847138     0.54700
H3531       H  0.79096670  0.30780643  0.23673825     0.07700
C3532       C  0.73872998  0.26590044  0.23242752    -0.06100
C3533       C  0.73271515  0.24278324  0.22440390    -0.06800
C3534       C  0.74679778  0.21682106  0.22572619    -0.16400
C3535       C  0.76904995  0.21432975  0.23490137    -0.02000
C3536       C  0.77546080  0.23772641  0.24293827    -0.09500
C3537       C  0.72223890  0.29315798  0.23062128     0.64700
H3538       H  0.71643069  0.24469690  0.21700131     0.19800
C3539       C  0.78519104  0.18700284  0.23638667     0.63100
H3540       H  0.79220233  0.23623739  0.25014988     0.07600
F3541       F  0.79998797  0.35910660  0.23538650    -0.19900
F3542       F  0.83503128  0.34778911  0.24936199    -0.16100
F3543       F  0.80283357  0.38078899  0.25470384    -0.19600
F3544       F  0.75293673  0.23925457  0.26956327    -0.23000
F3545       F  0.71404105  0.26095584  0.26182014    -0.24500
F3546       F  0.72919267  0.26930468  0.28224586    -0.18500
F3547       F  0.80586797  0.18875498  0.24594998    -0.21000
F3548       F  0.79798541  0.18037073  0.22466230    -0.22100
F3549       F  0.76693950  0.16568429  0.23980623    -0.19300
F3550       F  0.70074729  0.29044295  0.22150416    -0.19400
F3551       F  0.73998253  0.31412452  0.22631025    -0.23200
F3552       F  0.71031352  0.30123825  0.24234620    -0.24800
C3553       C  0.75839566  0.02913455  0.23334213    -0.11600
C3554       C  0.74343704  0.03346860  0.24501819     0.10900
C3555       C  0.72890114  0.05925490  0.24678808    -0.03400
C3556       C  0.72691282  0.07825037  0.23616827    -0.06200
C3557       C  0.73914485  0.07239215  0.22397661    -0.17000
C3558       C  0.75613595  0.04807345  0.22266452     0.02000
C3559       C  0.73960915  0.00925882  0.25427952     0.11900
C3560       C  0.71430191  0.06596650  0.25961044     0.62500
H3561       H  0.71418566  0.09709648  0.23703251     0.11900
C3562       C  0.77033478  0.04145821  0.20978492     0.54700
H3563       H  0.77004049  0.00966267  0.23228943     0.07700
C3564       C  0.71954167  0.98802474  0.25160893    -0.06100
C3565       C  0.71502252  0.96679234  0.26103352    -0.06800
C3566       C  0.72928652  0.96639443  0.27314396    -0.16400
C3567       C  0.74888738  0.98792256  0.27593433    -0.02000
C3568       C  0.75441028  0.00853834  0.26625349    -0.09500
C3569       C  0.70227815  0.98834215  0.23899747     0.64700
H3570       H  0.69967124  0.95053740  0.25914046     0.10200
C3571       C  0.76218089  0.99023376  0.28942963     0.63100
H3572       H  0.76957811  0.02493185  0.26816277     0.07600
F3573       F  0.75021200  0.03772561  0.20011567    -0.19900
F3574       F  0.78655519  0.01725451  0.21060496    -0.16100
F3575       F  0.78767003  0.06346405  0.20628362    -0.19600
F3576       F  0.73370151  0.06571553  0.26975177    -0.23000
F3577       F  0.69375531  0.04622883  0.26212139    -0.24500
F3578       F  0.70168106  0.09224609  0.25933164    -0.18500
F3579       F  0.77971363  0.96746348  0.29173469    -0.21000
F3580       F  0.74131918  0.99080226  0.29883755    -0.22100
F3581       F  0.77788062  0.01448698  0.29069584    -0.19300
F3582       F  0.68292149  0.96672845  0.23863746    -0.19400
F3583       F  0.71977661  0.98535390  0.22832345    -0.23200
F3584       F  0.68764714  0.01345049  0.23787208    -0.24800
C3585       C  0.48630470  0.28091545  0.21234813    -0.11600
C3586       C  0.49484891  0.26304112  0.20214536     0.10900
C3587       C  0.47755213  0.26090565  0.19083406    -0.03400
C3588       C  0.45351661  0.27833799  0.18969595    -0.06200
C3589       C  0.44554372  0.29728203  0.19959534    -0.17000
C3590       C  0.46172652  0.29790971  0.21133021     0.02000
C3591       C  0.52258963  0.24775243  0.20312338     0.11900
C3592       C  0.48472355  0.24048659  0.17991095     0.62500
H3593       H  0.44090095  0.27771952  0.18083433     0.11900
C3594       C  0.45345658  0.31684146  0.22257900     0.54700
H3595       H  0.49942504  0.28184354  0.22104042     0.07700
C3596       C  0.54804766  0.26033939  0.19893448    -0.06100
C3597       C  0.57278294  0.24380418  0.19835367    -0.06800
C3598       C  0.57300307  0.21529469  0.20192326    -0.16400
C3599       C  0.54800636  0.20305770  0.20678263    -0.02000
C3600       C  0.52316369  0.21957481  0.20737023    -0.09500
C3601       C  0.54897637  0.29109184  0.19493742     0.64700
H3602       H  0.59204677  0.25277748  0.19461139     0.10200
C3603       C  0.54780625  0.17265968  0.21130297     0.63100
H3604       H  0.50370734  0.21032959  0.21072268     0.07600
F3605       F  0.47291005  0.31571144  0.23272207    -0.19900
F3606       F  0.42773376  0.30842195  0.22743290    -0.16100
F3607       F  0.45147068  0.34439745  0.21829913    -0.19600
F3608       F  0.48441464  0.21329260  0.18472610    -0.23000
F3609       F  0.51114878  0.24615785  0.17500136    -0.24500
F3610       F  0.46563530  0.24214762  0.16963633    -0.18500
F3611       F  0.52189917  0.16498441  0.21626390    -0.21000
F3612       F  0.56781326  0.16884357  0.22105418    -0.22100
F3613       F  0.55397503  0.15511211  0.20093856    -0.19300
F3614       F  0.57536790  0.29882938  0.19060074    -0.19400
F3615       F  0.54229731  0.30764333  0.20558094    -0.23200
F3616       F  0.52993817  0.29639427  0.18493216    -0.24800
C3617       C  0.54134967  0.17109986  0.10304897    -0.11600
C3618       C  0.56606477  0.16127271  0.09714887     0.10900
C3619       C  0.56512421  0.15003529  0.08437780    -0.03400
C3620       C  0.53875173  0.14548672  0.07864008    -0.06200
C3621       C  0.51384085  0.15137639  0.08543228    -0.17000
C3622       C  0.51490649  0.16593250  0.09745334     0.02000
C3623       C  0.58943587  0.15517445  0.10619153     0.11900
C3624       C  0.59095173  0.14135248  0.07670183     0.62500
H3625       H  0.53757260  0.13524723  0.06917469     0.11900
C3626       C  0.48846810  0.17312702  0.10498456     0.54700
H3627       H  0.54280182  0.17985871  0.11281308     0.07700
C3628       C  0.60829243  0.17609437  0.11038734    -0.06100
C3629       C  0.62519995  0.17038219  0.12140920    -0.06800
C3630       C  0.62298479  0.14482154  0.12824293    -0.16400
C3631       C  0.60570243  0.12320706  0.12344849    -0.02000
C3632       C  0.58916945  0.12871134  0.11232620    -0.09500
C3633       C  0.60973506  0.20434809  0.10346308     0.64700
H3634       H  0.63913981  0.18637454  0.12521399     0.10200
C3635       C  0.60436058  0.09492573  0.13030715     0.63100
H3636       H  0.57450062  0.11304248  0.10882314     0.07600
F3637       F  0.47178266  0.19132968  0.09770692    -0.19900
F3638       F  0.49454673  0.18587031  0.11682148    -0.16100
F3639       F  0.47374502  0.14879084  0.10754312    -0.19600
F3640       F  0.58926621  0.11313042  0.07363542    -0.23000
F3641       F  0.61581763  0.14570640  0.08345295    -0.24500
F3642       F  0.59185169  0.15679451  0.06519627    -0.18500
F3643       F  0.58640663  0.07661215  0.12393378    -0.21000
F3644       F  0.59490853  0.09832134  0.14299727    -0.22100
F3645       F  0.63093189  0.08295883  0.13062443    -0.19300
F3646       F  0.63073223  0.22110265  0.10863222    -0.19400
F3647       F  0.58438249  0.21843538  0.10466869    -0.23200
F3648       F  0.61527168  0.20041658  0.09031212    -0.24800
C3649       C  0.00884191  0.01847970  0.97791397    -0.11600
C3650       C  0.01242883  0.00765217  0.99056525     0.10900
C3651       C  0.03928262  0.99683961  0.99427532    -0.03400
C3652       C  0.06254355  0.00106290  0.98578244    -0.06200
C3653       C  0.05911839  0.01340563  0.97329854    -0.17000
C3654       C  0.03149961  0.02102273  0.96917630     0.02000
C3655       C  0.98691427  0.00600484  0.99913440     0.11900
C3656       C  0.04291188  0.97964843  0.00676269     0.62500
H3657       H  0.08356748  0.99514484  0.98890213     0.11900
C3658       C  0.02608856  0.03245296  0.95555536     0.54700
H3659       H  0.98797399  0.02538305  0.97498866     0.07700
C3660       C  0.98104491  0.02543942  0.00933081    -0.06100
C3661       C  0.95800238  0.02021650  0.01780132    -0.06800
C3662       C  0.93899376  0.99824654  0.01534793    -0.16400
C3663       C  0.94188498  0.98309903  0.00340878    -0.02000
C3664       C  0.96655359  0.98596807  0.99602271    -0.09500
C3665       C  0.99790690  0.05228153  0.01071592     0.64700
H3666       H  0.95538054  0.03253588  0.02660922     0.10200
C3667       C  0.91980772  0.96299067  0.99827600     0.63100
H3668       H  0.96971924  0.97268820  0.98754082     0.07600
F3669       F  0.03896915  0.05821369  0.95412511    -0.19900
F3670       F  0.99765067  0.03594261  0.95295883    -0.16100
F3671       F  0.03683832  0.01378576  0.94653095    -0.19600
F3672       F  0.02732674  0.95528765  0.00573462    -0.23000
F3673       F  0.03372184  0.99441741  0.01754977    -0.24500
F3674       F  0.07075646  0.97224239  0.00891788    -0.18500
F3675       F  0.91459861  0.96870121  0.98517279    -0.21000
F3676       F  0.89456271  0.96552307  0.00485498    -0.22100
F3677       F  0.92961618  0.93568101  0.99945472    -0.19300
F3678       F  0.98892903  0.06813600  0.02125192    -0.19400
F3679       F  0.99451138  0.06826333  0.99946441    -0.23200
F3680       F  0.02617662  0.04651996  0.01244016    -0.24800
C3681       C  0.76040693  0.97987574  0.98134740    -0.11600
C3682       C  0.74889671  0.99425870  0.99200275     0.10900
C3683       C  0.72254166  0.00808604  0.99034017    -0.03400
C3684       C  0.70654416  0.00280694  0.97881400    -0.06200
C3685       C  0.71720664  0.98595363  0.96863369    -0.17000
C3686       C  0.74565400  0.97684198  0.96947691     0.02000
C3687       C  0.76496460  0.99303146  0.00469954     0.11900
C3688       C  0.71178293  0.02863991  0.00050476     0.62500
H3689       H  0.68525698  0.01085577  0.97794400     0.11900
C3690       C  0.76151417  0.96421734  0.95806649     0.54700
H3691       H  0.78128490  0.97078054  0.98233566     0.07700
C3692       C  0.76075038  0.97079976  0.01371797    -0.06100
C3693       C  0.77927096  0.96780830  0.02448790    -0.06800
C3694       C  0.80334169  0.98477518  0.02618551    -0.16400
C3695       C  0.80761211  0.00710487  0.01702738    -0.02000
C3696       C  0.78802347  0.01100842  0.00658890    -0.09500
C3697       C  0.73801540  0.94888387  0.01143358     0.64700
H3698       H  0.77574638  0.95087002  0.03138008     0.10200
C3699       C  0.83332143  0.02586141  0.01770228     0.63100
H3700       H  0.79133893  0.02733704  0.99934953     0.07600
F3701       F  0.78785911  0.97633738  0.95727171    -0.19900
F3702       F  0.74811608  0.96903057  0.94620401    -0.16100
F3703       F  0.76470177  0.93561082  0.96002791    -0.19600
F3704       F  0.73205824  0.04874569  0.00289959    -0.23000
F3705       F  0.70583571  0.01492229  0.01209489    -0.24500
F3706       F  0.68759633  0.04231985  0.99625073    -0.18500
F3707       F  0.85751271  0.00965293  0.01710967    -0.21000
F3708       F  0.83311494  0.04094305  0.02924679    -0.22100
F3709       F  0.83402320  0.04493750  0.00742308    -0.19300
F3710       F  0.73738430  0.92900203  0.02136300    -0.19400
F3711       F  0.74299380  0.93500381  0.99979477    -0.23200
F3712       F  0.71183456  0.96148353  0.01077096    -0.24800
C3713       C  0.07665826  0.89649136  0.12088263    -0.11600
C3714       C  0.07894664  0.87290804  0.11277644     0.10900
C3715       C  0.10250703  0.85488301  0.11369951    -0.03400
C3716       C  0.12306453  0.86074741  0.12321187    -0.06200
C3717       C  0.11965994  0.88310824  0.13197660    -0.17000
C3718       C  0.09666708  0.90178630  0.13065919     0.02000
C3719       C  0.05614644  0.86845685  0.10329380     0.11900
C3720       C  0.10502603  0.82912107  0.10506904     0.62500
H3721       H  0.14119939  0.84706955  0.12435304     0.11900
C3722       C  0.09326641  0.92687749  0.13964959     0.54700
H3723       H  0.05855202  0.91022588  0.11971262     0.07700
C3724       C  0.03023550  0.85614655  0.10689890    -0.06100
C3725       C  0.00681148  0.86076194  0.09877185    -0.06800
C3726       C  0.00846481  0.87849297  0.08779353    -0.16400
C3727       C  0.03514135  0.88743638  0.08331432    -0.02000
C3728       C  0.05863227  0.88237948  0.09127852    -0.09500
C3729       C  0.02555817  0.83970809  0.11948919     0.64700
H3730       H  0.98650899  0.85288318  0.10183560     0.10200
C3731       C  0.03985983  0.90358951  0.07068426     0.63100
H3732       H  0.07877982  0.89121369  0.08855145     0.07600
F3733       F  0.08986322  0.91783447  0.15242539    -0.19900
F3734       F  0.07011414  0.94316748  0.13623514    -0.16100
F3735       F  0.11694866  0.94356438  0.13892463    -0.19600
F3736       F  0.10614888  0.83724796  0.09206517    -0.23000
F3737       F  0.08194809  0.81196724  0.10685446    -0.24500
F3738       F  0.12897146  0.81357999  0.10797035    -0.18500
F3739       F  0.04725463  0.93090897  0.07364932    -0.21000
F3740       F  0.01645942  0.90390348  0.06257702    -0.22100
F3741       F  0.06166478  0.89127094  0.06382494    -0.19300
F3742       F  0.01578046  0.81320513  0.11642048    -0.19400
F3743       F  0.00554745  0.85331033  0.12694800    -0.23200
F3744       F  0.04958854  0.83656426  0.12703560    -0.24800
C3745       C  0.81134676  0.06117434  0.10930879    -0.11600
C3746       C  0.83081086  0.07302914  0.11815515     0.10900
C3747       C  0.85992349  0.06953773  0.11536684    -0.03400
C3748       C  0.86834880  0.05365860  0.10419558    -0.06200
C3749       C  0.84887895  0.04124921  0.09548232    -0.17000
C3750       C  0.81979637  0.04543550  0.09813642     0.02000
C3751       C  0.81984583  0.08797537  0.13036868     0.11900
C3752       C  0.88210734  0.08202956  0.12435158     0.62500
H3753       H  0.89046389  0.04951576  0.10255731     0.11900
C3754       C  0.79769052  0.03258827  0.08925800     0.54700
H3755       H  0.78919751  0.06372440  0.11144430     0.07700
C3756       C  0.80888993  0.11585124  0.12994717    -0.06100
C3757       C  0.79567801  0.12722537  0.14119293    -0.06800
C3758       C  0.79213956  0.11182413  0.15288494    -0.16400
C3759       C  0.80437551  0.08464323  0.15362336    -0.02000
C3760       C  0.81815527  0.07322036  0.14242496    -0.09500
C3761       C  0.80962363  0.13320433  0.11743323     0.64700
H3762       H  0.78559530  0.14765700  0.14055809     0.10200
C3763       C  0.80145008  0.06746463  0.16607869     0.63100
H3764       H  0.82646162  0.05200708  0.14281393     0.07600
F3765       F  0.77067990  0.03976923  0.09305181    -0.19900
F3766       F  0.79997748  0.00360591  0.08949112    -0.16100
F3767       F  0.80159418  0.04209427  0.07658044    -0.19600
F3768       F  0.87963355  0.07089546  0.13681482    -0.23000
F3769       F  0.87875093  0.11083870  0.12497969    -0.24500
F3770       F  0.90906979  0.07651866  0.11996725    -0.18500
F3771       F  0.77337898  0.06174162  0.16833497    -0.21000
F3772       F  0.81209007  0.08250132  0.17655570    -0.22100
F3773       F  0.81592181  0.04222046  0.16536631    -0.19300
F3774       F  0.79948160  0.16020974  0.11934384    -0.19400
F3775       F  0.79323405  0.12065256  0.10791656    -0.23200
F3776       F  0.83687750  0.13530109  0.11295568    -0.24800
C3777       C  0.97356562  0.77986636  0.03985941    -0.11600
C3778       C  0.00259660  0.78138085  0.04255781     0.10900
C3779       C  0.01420682  0.80783869  0.04600650    -0.03400
C3780       C  0.99615675  0.83143466  0.04723623    -0.06200
C3781       C  0.96696682  0.82945026  0.04530356    -0.17000
C3782       C  0.95548429  0.80338698  0.04134805     0.02000
C3783       C  0.01980743  0.75460718  0.04274307     0.11900
C3784       C  0.04543701  0.81097762  0.04878247     0.62500
H3785       H  0.00457035  0.85147882  0.05030862     0.11900
C3786       C  0.92415529  0.80058468  0.03881364     0.54700
H3787       H  0.96497362  0.75971646  0.03706632     0.07700
C3788       C  0.01919628  0.73587231  0.05359393    -0.06100
C3789       C  0.03658578  0.71167826  0.05352285    -0.06800
C3790       C  0.05484536  0.70543837  0.04310221    -0.16400
C3791       C  0.05548776  0.72412274  0.03225200    -0.02000
C3792       C  0.03757303  0.74815139  0.03214586    -0.09500
C3793       C  0.00068243  0.74176644  0.06538602     0.64700
H3794       H  0.03658168  0.69759233  0.06186699     0.10200
C3795       C  0.07599680  0.71932100  0.02118264     0.63100
H3796       H  0.03783329  0.76254628  0.02390671     0.07600
F3797       F  0.90943806  0.80558793  0.05022024    -0.19900
F3798       F  0.91722276  0.77400708  0.03442459    -0.16100
F3799       F  0.91581726  0.81990438  0.02938074    -0.19600
F3800       F  0.06057264  0.80484088  0.03762829    -0.23000
F3801       F  0.05361295  0.79287619  0.05874078    -0.24500
F3802       F  0.05213223  0.83802956  0.05257589    -0.18500
F3803       F  0.07433091  0.74039503  0.01181264    -0.21000
F3804       F  0.07022413  0.69399324  0.01518174    -0.22100
F3805       F  0.10318206  0.71867571  0.02609589    -0.19300
F3806       F  0.00496573  0.72233737  0.07531806    -0.19400
F3807       F  0.97267244  0.74071082  0.06173822    -0.23200
F3808       F  0.00649192  0.76808115  0.07038827    -0.24800
C3809       C  0.57413590  0.47764176  0.99550822    -0.11600
C3810       C  0.55381190  0.49763647  0.99893115     0.10900
C3811       C  0.55687054  0.51221479  0.01098838    -0.03400
C3812       C  0.57883770  0.50423685  0.01973480    -0.06200
C3813       C  0.59865845  0.48345096  0.01639882    -0.17000
C3814       C  0.59747040  0.47181530  0.00359975     0.02000
C3815       C  0.53034409  0.50353973  0.98940618     0.11900
C3816       C  0.53694242  0.53594562  0.01458584     0.62500
H3817       H  0.57982657  0.51320159  0.02945956     0.11900
C3818       C  0.62042410  0.45314769  0.99805756     0.54700
H3819       H  0.57216804  0.46693281  0.98619579     0.07700
C3820       C  0.53467918  0.51969381  0.97790408    -0.06100
C3821       C  0.51137756  0.52609163  0.96983683    -0.06800
C3822       C  0.48394893  0.51721622  0.97284856    -0.16400
C3823       C  0.47994662  0.49922051  0.98368987    -0.02000
C3824       C  0.50335994  0.49245932  0.99180583    -0.09500
C3825       C  0.56359395  0.53090824  0.97432979     0.64700
H3826       H  0.51417762  0.53929674  0.96128298     0.10200
C3827       C  0.45094989  0.48827431  0.98684181     0.63100
H3828       H  0.50057982  0.47928319  0.00037106     0.07600
F3829       F  0.62635796  0.46149075  0.98536292    -0.19900
F3830       F  0.61133932  0.42560823  0.99787047    -0.16100
F3831       F  0.64518553  0.45477042  0.00520389    -0.19600
F3832       F  0.50984664  0.52588548  0.01571932    -0.23000
F3833       F  0.53744451  0.55650659  0.00497556    -0.24500
F3834       F  0.54440216  0.54827686  0.02635749    -0.18500
F3835       F  0.45164529  0.46928314  0.99714550    -0.21000
F3836       F  0.43987140  0.47484115  0.97599730    -0.22100
F3837       F  0.43356629  0.51045190  0.99019396    -0.19300
F3838       F  0.56257689  0.54804255  0.96333702    -0.19400
F3839       F  0.58167522  0.50885816  0.97167882    -0.23200
F3840       F  0.57445842  0.54647442  0.98456449    -0.24800
C3841       C  0.78402679  0.45525520  0.01465095    -0.11600
C3842       C  0.77220010  0.46936082  0.00381578     0.10900
C3843       C  0.74552849  0.48252786  0.00519319    -0.03400
C3844       C  0.73077908  0.47920652  0.01707583    -0.06200
C3845       C  0.74208539  0.46381846  0.02771163    -0.17000
C3846       C  0.77007062  0.45357788  0.02677486     0.02000
C3847       C  0.78773058  0.46884891  0.99106505     0.11900
C3848       C  0.73226762  0.49936456  0.99406574     0.62500
H3849       H  0.70954151  0.48735923  0.01783602     0.11900
C3850       C  0.78566373  0.44114185  0.03843990     0.54700
H3851       H  0.80433700  0.44513017  0.01356347     0.07700
C3852       C  0.81307569  0.48380352  0.98901836    -0.06100
C3853       C  0.82751615  0.48042570  0.97705328    -0.06800
C3854       C  0.81753062  0.46265526  0.96706467    -0.16400
C3855       C  0.79111387  0.44914694  0.96886175    -0.02000
C3856       C  0.77715327  0.45201912  0.98094356    -0.09500
C3857       C  0.82510402  0.50294126  0.99949889     0.64700
H3858       H  0.84755752  0.49071102  0.97569715     0.10200
C3859       C  0.77722312  0.43186763  0.95815271     0.63100
H3860       H  0.75797836  0.44044132  0.98270915     0.07600
F3861       F  0.81437292  0.44512228  0.03721718    -0.19900
F3862       F  0.78045670  0.41264880  0.03924370    -0.16100
F3863       F  0.77738727  0.45402771  0.04993588    -0.19600
F3864       F  0.72382765  0.48154092  0.98415856    -0.23000
F3865       F  0.75144608  0.51838185  0.98913889    -0.24500
F3866       F  0.70892015  0.51433999  0.99820110    -0.18500
F3867       F  0.79015528  0.40585333  0.95725865    -0.21000
F3868       F  0.77900253  0.44581196  0.94626785    -0.22100
F3869       F  0.74898339  0.42750810  0.96067004    -0.19300
F3870       F  0.84766172  0.51831215  0.99489828    -0.19400
F3871       F  0.83437885  0.48717694  0.01008209    -0.23200
F3872       F  0.80469454  0.52167514  0.00362304    -0.24800
C3873       C  0.49368084  0.24788619  0.04242090    -0.11600
C3874       C  0.52049060  0.24146418  0.03758770     0.10900
C3875       C  0.52624560  0.21323015  0.03382739    -0.03400
C3876       C  0.50514631  0.19248961  0.03543319    -0.06200
C3877       C  0.47872474  0.19875316  0.04090598    -0.17000
C3878       C  0.47263756  0.22732360  0.04398737     0.02000
C3879       C  0.54273509  0.26396625  0.03853746     0.11900
C3880       C  0.55470046  0.20480192  0.02836948     0.62500
H3881       H  0.50977115  0.17078180  0.03309919     0.11900
C3882       C  0.44446522  0.23642339  0.04945974     0.54700
H3883       H  0.48972989  0.26918126  0.04566427     0.07700
C3884       C  0.54300736  0.28862305  0.03061484    -0.06100
C3885       C  0.56197034  0.31072097  0.03371710    -0.06800
C3886       C  0.58074148  0.30912981  0.04447638    -0.16400
C3887       C  0.58163920  0.28327998  0.05173432    -0.02000
C3888       C  0.56212385  0.26187930  0.04885553    -0.09500
C3889       C  0.52295338  0.29183092  0.01907629     0.64700
H3890       H  0.56128874  0.33000753  0.02806211     0.10200
C3891       C  0.60251722  0.27768881  0.06277138     0.63100
H3892       H  0.56118484  0.24341423  0.05508122     0.07600
F3893       F  0.42277296  0.22314014  0.04289267    -0.19900
F3894       F  0.44029787  0.26510936  0.04810682    -0.16100
F3895       F  0.44353729  0.22990631  0.06264749    -0.19600
F3896       F  0.57531823  0.20768244  0.03785390    -0.23000
F3897       F  0.56113060  0.22166751  0.01775613    -0.24500
F3898       F  0.55501208  0.17711483  0.02423289    -0.18500
F3899       F  0.60502551  0.24923055  0.06549206    -0.21000
F3900       F  0.59350795  0.29096944  0.07402994    -0.22100
F3901       F  0.62894945  0.28711843  0.05933468    -0.19300
F3902       F  0.52877318  0.31560136  0.01172737    -0.19400
F3903       F  0.49560182  0.29399960  0.02347880    -0.23200
F3904       F  0.52519395  0.26873850  0.01096299    -0.24800
C3905       C  0.47966424  0.38059392  0.08794693    -0.11600
C3906       C  0.48106975  0.37062513  0.10081150     0.10900
C3907       C  0.50525426  0.35600678  0.10534126    -0.03400
C3908       C  0.52947323  0.35673146  0.09759363    -0.06200
C3909       C  0.52923321  0.37073480  0.08550466    -0.17000
C3910       C  0.50335916  0.37987511  0.07995041     0.02000
C3911       C  0.45810374  0.37820251  0.10966359     0.11900
C3912       C  0.50557856  0.34046003  0.11834969     0.62500
H3913       H  0.54923320  0.34869250  0.10144379     0.11900
C3914       C  0.50006424  0.38986419  0.06590765     0.54700
H3915       H  0.46032934  0.39014280  0.08434379     0.07700
C3916       C  0.45901862  0.40327230  0.11710152    -0.06100
C3917       C  0.43819163  0.40769493  0.12654327    -0.06800
C3918       C  0.41684487  0.38804495  0.12842959    -0.16400
C3919       C  0.41456380  0.36436237  0.12015905    -0.02000
C3920       C  0.43542845  0.35983829  0.11077221    -0.09500
C3921       C  0.48233545  0.42469572  0.11534337     0.64700
H3922       H  0.43934099  0.42559540  0.13304735     0.10200
C3923       C  0.39094722  0.34332773  0.12171410     0.63100
H3924       H  0.43499515  0.34126517  0.10467194     0.07600
F3925       F  0.49528908  0.41854662  0.06571456    -0.19900
F3926       F  0.47723877  0.37658997  0.06021805    -0.16100
F3927       F  0.52345772  0.38376211  0.05842327    -0.19600
F3928       F  0.48547906  0.31959654  0.11805431    -0.23000
F3929       F  0.49969925  0.35863660  0.12850642    -0.24500
F3930       F  0.53144102  0.32794711  0.12085385    -0.18500
F3931       F  0.39109324  0.32341895  0.11186013    -0.21000
F3932       F  0.36529451  0.35714633  0.12133718    -0.22100
F3933       F  0.39378973  0.32951116  0.13355621    -0.19300
F3934       F  0.47854248  0.44790025  0.12329342    -0.19400
F3935       F  0.48274697  0.43396182  0.10249118    -0.23200
F3936       F  0.50809406  0.41271179  0.11843180    -0.24800
C3937       C  0.59653128  0.28807734  0.14492027    -0.11600
C3938       C  0.60968950  0.31129963  0.15064110     0.10900
C3939       C  0.61848057  0.31005619  0.16383764    -0.03400
C3940       C  0.62072773  0.28349912  0.16971188    -0.06200
C3941       C  0.61355227  0.25914363  0.16273765    -0.17000
C3942       C  0.59808931  0.26155985  0.15091308     0.02000
C3943       C  0.62059320  0.33272798  0.14159864     0.11900
C3944       C  0.62617677  0.33632261  0.17138365     0.62500
H3945       H  0.63064641  0.28129513  0.17925028     0.11900
C3946       C  0.58583514  0.23619939  0.14406182     0.54700
H3947       H  0.58842584  0.29010281  0.13501427     0.07700
C3948       C  0.64558515  0.32757012  0.13438842    -0.06100
C3949       C  0.65192314  0.34547895  0.12392239    -0.06800
C3950       C  0.63427672  0.36795645  0.12060092    -0.16400
C3951       C  0.61076082  0.37454923  0.12846506    -0.02000
C3952       C  0.60418665  0.35657697  0.13895361    -0.09500
C3953       C  0.66435113  0.30205566  0.13692309     0.64700
H3954       H  0.66967062  0.34090854  0.11764472     0.10200
C3955       C  0.59228209  0.39980960  0.12544752     0.63100
H3956       H  0.58544351  0.36010919  0.14471410     0.07600
F3957       F  0.57016859  0.24383822  0.13312421    -0.19900
F3958       F  0.56829527  0.22202831  0.15257033    -0.16100
F3959       F  0.60720426  0.21845784  0.14009197    -0.19600
F3960       F  0.63609823  0.32997012  0.18384028    -0.23000
F3961       F  0.60242506  0.35298484  0.17261173    -0.24500
F3962       F  0.64672191  0.35133609  0.16491568    -0.18500
F3963       F  0.58057094  0.39724088  0.11308239    -0.21000
F3964       F  0.60835618  0.42391560  0.12593099    -0.22100
F3965       F  0.57064025  0.40255306  0.13438237    -0.19300
F3966       F  0.68952708  0.30395068  0.13021446    -0.19400
F3967       F  0.65082312  0.27796009  0.13283729    -0.23200
F3968       F  0.67077446  0.29972944  0.15010393    -0.24800
C3969       C  0.78570625  0.78837124  0.25866941    -0.11600
C3970       C  0.76551111  0.77710757  0.25007392     0.10900
C3971       C  0.73866196  0.78987518  0.24936862    -0.03400
C3972       C  0.73321891  0.81392077  0.25701994    -0.06200
C3973       C  0.75309003  0.82530112  0.26594207    -0.17000
C3974       C  0.78014445  0.81226012  0.26657612     0.02000
C3975       C  0.77396607  0.75408910  0.24080934     0.11900
C3976       C  0.71569003  0.77782051  0.24063292     0.62500
H3977       H  0.71265370  0.82354799  0.25625082     0.11900
C3978       C  0.80344504  0.82362285  0.27522002     0.54700
H3979       H  0.80621304  0.77837790  0.25897017     0.07700
C3980       C  0.78774121  0.76048847  0.22890545    -0.06100
C3981       C  0.79486933  0.73847796  0.22033739    -0.06800
C3982       C  0.78989506  0.71012551  0.22341193    -0.16400
C3983       C  0.77629890  0.70352769  0.23533230    -0.02000
C3984       C  0.76804988  0.72572877  0.24378293    -0.09500
C3985       C  0.79647514  0.79037804  0.22561264     0.64700
H3986       H  0.80623133  0.74314522  0.21144292     0.10200
C3987       C  0.77155351  0.67312348  0.23917494     0.63100
H3988       H  0.75760784  0.72107455  0.25293231     0.07600
F3989       F  0.82868640  0.80966757  0.27323561    -0.19900
F3990       F  0.79636508  0.82042862  0.28825606    -0.16100
F3991       F  0.80760829  0.85175185  0.27240267    -0.19600
F3992       F  0.70968793  0.75070445  0.24461139    -0.23000
F3993       F  0.72441992  0.77733998  0.22773767    -0.24500
F3994       F  0.69106018  0.79341418  0.24119168    -0.18500
F3995       F  0.79709830  0.65915243  0.24008783    -0.21000
F3996       F  0.75508367  0.66023339  0.22976407    -0.22100
F3997       F  0.75812688  0.67081663  0.25112491    -0.19300
F3998       F  0.80722892  0.79248066  0.21307637    -0.19400
F3999       F  0.81706030  0.79890408  0.23433431    -0.23200
F4000       F  0.77371602  0.80847078  0.22642291    -0.24800
C4001       C  0.81873501  0.51635558  0.23575701    -0.11600
C4002       C  0.80652344  0.52967791  0.24658500     0.10900
C4003       C  0.79650410  0.55769453  0.24515986    -0.03400
C4004       C  0.80004764  0.57169370  0.23302801    -0.06200
C4005       C  0.81348273  0.55877264  0.22236874    -0.17000
C4006       C  0.82213901  0.53021744  0.22363454     0.02000
C4007       C  0.80539603  0.51368755  0.25928346     0.11900
C4008       C  0.78217841  0.57279913  0.25639173     0.62500
H4009       H  0.79369317  0.59348755  0.23201660     0.11900
C4010       C  0.83569039  0.51435405  0.21241297     0.54700
H4011       H  0.82650688  0.49506211  0.23699390     0.07700
C4012       C  0.78748818  0.49029694  0.26107417    -0.06100
C4013       C  0.79076162  0.47342598  0.27237910    -0.06800
C4014       C  0.81069211  0.47952161  0.28222985    -0.16400
C4015       C  0.82645160  0.50482715  0.28106011    -0.02000
C4016       C  0.82421757  0.52078761  0.26938446    -0.09500
C4017       C  0.76588869  0.48204052  0.25081033     0.64700
H4018       H  0.77853162  0.45437135  0.27318927     0.10200
C4019       C  0.84550031  0.51540000  0.29196785     0.63100
H4020       H  0.83793234  0.53860724  0.26789863     0.07600
F4021       F  0.82222879  0.52075987  0.20071160    -0.19900
F4022       F  0.83402275  0.48556842  0.21425532    -0.16100
F4023       F  0.86378683  0.52144998  0.21156691    -0.19600
F4024       F  0.80083096  0.57635530  0.26667201    -0.23000
F4025       F  0.75949608  0.55724081  0.26065605    -0.24500
F4026       F  0.77239969  0.59912089  0.25267034    -0.18500
F4027       F  0.87034531  0.50017312  0.29223824    -0.21000
F4028       F  0.83207903  0.51296943  0.30391431    -0.22100
F4029       F  0.85217356  0.54345716  0.29021214    -0.19300
F4030       F  0.74556928  0.46463929  0.25607440    -0.19400
F4031       F  0.77905246  0.46793602  0.24072835    -0.23200
F4032       F  0.75235299  0.50559329  0.24583220    -0.24800
C4033       C  0.00015389  0.74649223  0.21801532    -0.11600
C4034       C  0.01979032  0.75061145  0.20790230     0.10900
C4035       C  0.01477774  0.73757204  0.19568665    -0.03400
C4036       C  0.99004291  0.72174357  0.19387449    -0.06200
C4037       C  0.96957710  0.71792829  0.20377450    -0.17000
C4038       C  0.97503591  0.73064568  0.21618607     0.02000
C4039       C  0.04454671  0.77008244  0.20974683     0.11900
C4040       C  0.03543058  0.74076433  0.18442677     0.62500
H4041       H  0.98646485  0.71250440  0.18435854     0.11900
C4042       C  0.95450091  0.72817878  0.22743216     0.54700
H4043       H  0.00436550  0.75650352  0.22732037     0.07700
C4044       C  0.04193147  0.79943559  0.20760116    -0.06100
C4045       C  0.06649822  0.81580878  0.20618797    -0.06800
C4046       C  0.09372729  0.80408042  0.20707985    -0.16400
C4047       C  0.09634071  0.77515764  0.21044448    -0.02000
C4048       C  0.07164549  0.75872277  0.21183148    -0.09500
C4049       C  0.01316579  0.81317941  0.20627226     0.64700
H4050       H  0.06460058  0.83791434  0.20375127     0.10200
C4051       C  0.12504619  0.76134449  0.21180288     0.63100
H4052       H  0.07334897  0.73638214  0.21374828     0.07600
F4053       F  0.94892997  0.70019816  0.22999566    -0.19900
F4054       F  0.92982805  0.74212451  0.22419769    -0.16100
F4055       F  0.96498488  0.73994996  0.23883185    -0.19600
F4056       F  0.06137148  0.72986858  0.18801662    -0.23000
F4057       F  0.03838746  0.76884974  0.18121798    -0.24500
F4058       F  0.02662441  0.72672670  0.17329723    -0.18500
F4059       F  0.12303875  0.73293696  0.21459604    -0.21000
F4060       F  0.13982220  0.77385754  0.22190020    -0.22100
F4061       F  0.13985799  0.76429464  0.20025161    -0.19300
F4062       F  0.01505350  0.84198823  0.20460472    -0.19400
F4063       F  0.99767936  0.80817760  0.21745783    -0.23200
F4064       F  0.99906111  0.80226496  0.19558091    -0.24800
C4065       C  0.96540986  0.63979615  0.11710720    -0.11600
C4066       C  0.95746948  0.66101354  0.10826237     0.10900
C4067       C  0.93119936  0.67468256  0.10939972    -0.03400
C4068       C  0.91452557  0.66817593  0.12032205    -0.06200
C4069       C  0.92343777  0.64802131  0.12957326    -0.17000
C4070       C  0.94851754  0.63265247  0.12769828     0.02000
C4071       C  0.97799159  0.66785872  0.09810107     0.11900
C4072       C  0.92120453  0.69593209  0.09923317     0.62500
H4073       H  0.89503716  0.67947456  0.12199921     0.11900
C4074       C  0.95898233  0.60977661  0.13697992     0.54700
H4075       H  0.98539554  0.62905456  0.11582679     0.07700
C4076       C  0.00310960  0.68206299  0.10141833    -0.06100
C4077       C  0.02711242  0.67677706  0.09391671    -0.06800
C4078       C  0.02580568  0.65882774  0.08309897    -0.16400
C4079       C  0.99939741  0.64970872  0.07830561    -0.02000
C4080       C  0.97584443  0.65345858  0.08623350    -0.09500
C4081       C  0.00561915  0.69965716  0.11372696     0.64700
H4082       H  0.04739928  0.68432230  0.09724608     0.10200
C4083       C  0.99540113  0.63480673  0.06532373     0.63100
H4084       H  0.95624274  0.64330055  0.08361732     0.07600
F4085       F  0.98061447  0.62031789  0.14458560    -0.19900
F4086       F  0.96904219  0.58722496  0.12985509    -0.16100
F4087       F  0.93813004  0.59972071  0.14512441    -0.19600
F4088       F  0.91742942  0.68264043  0.08734168    -0.23000
F4089       F  0.94083828  0.71699502  0.09770963    -0.24500
F4090       F  0.89592974  0.70827421  0.10273778    -0.18500
F4091       F  0.98895988  0.60690742  0.06759655    -0.21000
F4092       F  0.01896513  0.63628565  0.05746317    -0.22100
F4093       F  0.97338329  0.64728185  0.05850798    -0.19300
F4094       F  0.02855773  0.71741473  0.11306505    -0.19400
F4095       F  0.00876238  0.68236525  0.12455028    -0.23200
F4096       F  0.98187798  0.71612409  0.11530058    -0.24800
C4097       C  0.91959676  0.80868123  0.15910639    -0.11600
C4098       C  0.92096512  0.80918861  0.14545589     0.10900
C4099       C  0.92678331  0.78421780  0.13844893    -0.03400
C4100       C  0.92533972  0.75854828  0.14519496    -0.06200
C4101       C  0.91946085  0.75790873  0.15860420    -0.17000
C4102       C  0.91959470  0.78312182  0.16590986     0.02000
C4103       C  0.91187793  0.83481556  0.13854798     0.11900
C4104       C  0.93289455  0.78474262  0.12386447     0.62500
H4105       H  0.92621104  0.73891167  0.13986331     0.11900
C4106       C  0.91956180  0.78416645  0.18072784     0.54700
H4107       H  0.91689242  0.82820931  0.16440404     0.07700
C4108       C  0.88375745  0.83775080  0.13404884    -0.06100
C4109       C  0.87791375  0.85798113  0.12437952    -0.06800
C4110       C  0.89901328  0.87585438  0.11989681    -0.16400
C4111       C  0.92562129  0.87617762  0.12619459    -0.02000
C4112       C  0.93198136  0.85493680  0.13530571    -0.09500
C4113       C  0.86033192  0.81930753  0.13930035     0.64700
H4114       H  0.85739635  0.85889835  0.11971785     0.10200
C4115       C  0.94728279  0.89836850  0.12299291     0.63100
H4116       H  0.95300476  0.85294052  0.13937006     0.07600
F4117       F  0.89548881  0.79765315  0.18499661    -0.19900
F4118       F  0.94278484  0.79913227  0.18491244    -0.16100
F4119       F  0.92100674  0.75783195  0.18641225    -0.19600
F4120       F  0.95590415  0.80167348  0.12155163    -0.23000
F4121       F  0.91000784  0.79517771  0.11695693    -0.24500
F4122       F  0.93893657  0.75817530  0.11915481    -0.18500
F4123       F  0.93496026  0.92471924  0.12355751    -0.21000
F4124       F  0.95766383  0.89407280  0.11058270    -0.22100
F4125       F  0.96957750  0.89779569  0.13177933    -0.19300
F4126       F  0.83481893  0.82521496  0.13326438    -0.19400
F4127       F  0.85741361  0.82401295  0.15258631    -0.23200
F4128       F  0.86634532  0.79121209  0.13730746    -0.24800
C4129       C  0.72802090  0.59553577  0.13248113    -0.11600
C4130       C  0.73243389  0.56727461  0.12881996     0.10900
C4131       C  0.75020838  0.55071335  0.13711106    -0.03400
C4132       C  0.76342338  0.56307539  0.14828506    -0.06200
C4133       C  0.75977797  0.59159090  0.15178607    -0.17000
C4134       C  0.74135606  0.60790115  0.14366622     0.02000
C4135       C  0.71794112  0.55530402  0.11652648     0.11900
C4136       C  0.75605393  0.52011358  0.13389512     0.62500
H4137       H  0.77830174  0.55077864  0.15401280     0.11900
C4138       C  0.73633772  0.63865418  0.14665891     0.54700
H4139       H  0.71440629  0.60818301  0.12626809     0.07700
C4140       C  0.68963141  0.54572976  0.11665266    -0.06100
C4141       C  0.67842313  0.53159536  0.10554988    -0.06800
C4142       C  0.69399199  0.52665884  0.09404089    -0.16400
C4143       C  0.72132746  0.53835487  0.09341018    -0.02000
C4144       C  0.73288289  0.55239496  0.10460507    -0.09500
C4145       C  0.67137270  0.54971690  0.12865933     0.64700
H4146       H  0.65753866  0.52272105  0.10604951     0.10200
C4147       C  0.73819625  0.53526977  0.08095964     0.63100
H4148       H  0.75414958  0.56037000  0.10425838     0.07600
F4149       F  0.71782192  0.65100566  0.13780525    -0.19900
F4150       F  0.76140958  0.65316830  0.14615349    -0.16100
F4151       F  0.72509013  0.64112016  0.15906411    -0.19600
F4152       F  0.77042108  0.51839674  0.12218767    -0.23000
F4153       F  0.73105733  0.50556842  0.13277532    -0.24500
F4154       F  0.77218911  0.50706203  0.14350311    -0.18500
F4155       F  0.76370950  0.54903283  0.08176897    -0.21000
F4156       F  0.72307337  0.54661930  0.07056833    -0.22100
F4157       F  0.74336454  0.50714696  0.07851409    -0.19300
F4158       F  0.64507188  0.53775653  0.12708775    -0.19400
F4159       F  0.66760855  0.57808522  0.13094789    -0.23200
F4160       F  0.68405563  0.53743096  0.13948709    -0.24800
C4161       C  0.75651871  0.23811776  0.75846835    -0.11600
C4162       C  0.77112229  0.24064006  0.74657370     0.10900
C4163       C  0.79274723  0.22105201  0.74377131    -0.03400
C4164       C  0.80014883  0.20063525  0.75329175    -0.06200
C4165       C  0.78674181  0.19902886  0.76556934    -0.17000
C4166       C  0.76383038  0.21755445  0.76801060     0.02000
C4167       C  0.76290376  0.26362636  0.73712511     0.11900
C4168       C  0.80824181  0.22214549  0.73082480     0.62500
H4169       H  0.81756727  0.18645225  0.75144889     0.11900
C4170       C  0.74754172  0.21610624  0.78072150     0.54700
H4171       H  0.73948231  0.25275811  0.76027915     0.07700
C4172       C  0.73956260  0.26132767  0.72849341    -0.06100
C4173       C  0.73227731  0.28442043  0.72050298    -0.06800
C4174       C  0.74700526  0.31007030  0.72071338    -0.16400
C4175       C  0.77055880  0.31237758  0.72920148    -0.02000
C4176       C  0.77814428  0.28903644  0.73725005    -0.09500
C4177       C  0.72088794  0.23558476  0.72743465     0.64700
H4178       H  0.71410515  0.28250269  0.71409398     0.10200
C4179       C  0.78652879  0.33970748  0.73028098     0.63100
H4180       H  0.79572968  0.29066189  0.74399025     0.07600
F4181       F  0.72711588  0.23686667  0.78142000    -0.19900
F4182       F  0.76549837  0.21941520  0.79129334    -0.16100
F4183       F  0.73436387  0.19034574  0.78159648    -0.19600
F4184       F  0.82204147  0.24752379  0.72964818    -0.23000
F4185       F  0.78928878  0.21945930  0.72057979    -0.24500
F4186       F  0.82800130  0.20080191  0.72980927    -0.18500
F4187       F  0.76846331  0.36077384  0.73432651    -0.21000
F4188       F  0.79765659  0.34680530  0.71824172    -0.22100
F4189       F  0.80847248  0.33777949  0.73922352    -0.19300
F4190       F  0.71882934  0.22762374  0.71443986    -0.19400
F4191       F  0.69428860  0.24238086  0.73189245    -0.23200
F4192       F  0.73068596  0.21270880  0.73450271    -0.24800
C4193       C  0.76472859  0.48597347  0.73433991    -0.11600
C4194       C  0.74661708  0.50886372  0.73654250     0.10900
C4195       C  0.72469135  0.51430197  0.72742332    -0.03400
C4196       C  0.72054144  0.49558149  0.71692239    -0.06200
C4197       C  0.73696353  0.47101081  0.71524090    -0.17000
C4198       C  0.76028577  0.46673804  0.72393870     0.02000
C4199       C  0.74912120  0.52528897  0.74905287     0.11900
C4200       C  0.70513124  0.53944805  0.72898384     0.62500
H4201       H  0.70345261  0.49971073  0.71012874     0.11900
C4202       C  0.77990704  0.44163179  0.72273885     0.54700
H4203       H  0.78170445  0.48256017  0.74129090     0.07700
C4204       C  0.73642544  0.51570037  0.76076550    -0.06100
C4205       C  0.73466970  0.53404962  0.77152818    -0.06800
C4206       C  0.74482434  0.56177002  0.77103886    -0.16400
C4207       C  0.76012639  0.57038588  0.75980689    -0.02000
C4208       C  0.76207637  0.55183944  0.74898131    -0.09500
C4209       C  0.72351330  0.48661409  0.76170501     0.64700
H4210       H  0.72362586  0.52740673  0.78025316     0.10200
C4211       C  0.77295849  0.59944376  0.75894179     0.63100
H4212       H  0.77238900  0.55853149  0.74007602     0.07600
F4213       F  0.76495160  0.41708124  0.72452288    -0.19900
F4214       F  0.80127918  0.44209692  0.73200923    -0.16100
F4215       F  0.79230228  0.44165770  0.71051433    -0.19600
F4216       F  0.72044920  0.56400675  0.72826294    -0.23000
F4217       F  0.69174660  0.53816909  0.74096127    -0.24500
F4218       F  0.68461637  0.54045552  0.71930213    -0.18500
F4219       F  0.78740548  0.60332359  0.74733827    -0.21000
F4220       F  0.79177296  0.60313989  0.76916935    -0.22100
F4221       F  0.75201580  0.61966056  0.75962029    -0.19300
F4222       F  0.71213099  0.48154858  0.77394220    -0.19400
F4223       F  0.74389989  0.46640285  0.75949868    -0.23200
F4224       F  0.70228347  0.48388987  0.75248928    -0.24800
C4225       C  0.02132736  0.52565745  0.51540571    -0.11600
C4226       C  0.01468931  0.51353395  0.50334782     0.10900
C4227       C  0.98673074  0.50419365  0.50103446    -0.03400
C4228       C  0.96559855  0.51064758  0.51031867    -0.06200
C4229       C  0.97207083  0.52460301  0.52203903    -0.17000
C4230       C  0.00066335  0.53090452  0.52487890     0.02000
C4231       C  0.03840768  0.50879068  0.49404439     0.11900
C4232       C  0.97938572  0.48728158  0.48893513     0.62500
H4233       H  0.94377380  0.50583083  0.50826902     0.11900
C4234       C  0.00941179  0.54309336  0.53796597     0.54700
H4235       H  0.04302545  0.53132359  0.51727365     0.07700
C4236       C  0.04623931  0.52856916  0.48426114    -0.06100
C4237       C  0.06836077  0.52162223  0.47556287    -0.06800
C4238       C  0.08454438  0.49704356  0.47731523    -0.16400
C4239       C  0.07984625  0.48048975  0.48874096    -0.02000
C4240       C  0.05588483  0.48556213  0.49636089    -0.09500
C4241       C  0.03204791  0.55715133  0.48337089     0.64700
H4242       H  0.07240532  0.53476279  0.46710170     0.10200
C4243       C  0.09944978  0.45698161  0.49311839     0.63100
H4244       H  0.05125198  0.47170038  0.50452309     0.07600
F4245       F  0.99914364  0.57013112  0.53918138    -0.19900
F4246       F  0.03839008  0.54404754  0.53938999    -0.16100
F4247       F  0.99888847  0.52646760  0.54791267    -0.19600
F4248       F  0.99542948  0.46296871  0.48872886    -0.23000
F4249       F  0.98472898  0.50273825  0.47775182    -0.24500
F4250       F  0.95129316  0.47969831  0.48875274    -0.18500
F4251       F  0.10384595  0.45858802  0.50651379    -0.21000
F4252       F  0.12546048  0.45875882  0.48715791    -0.22100
F4253       F  0.08744214  0.43130702  0.49025172    -0.19300
F4254       F  0.04262849  0.57309593  0.47316486    -0.19400
F4255       F  0.03666435  0.57160696  0.49490649    -0.23200
F4256       F  0.00342879  0.55427990  0.48145832    -0.24800
C4257       C  0.74293202  0.52098662  0.48145213    -0.11600
C4258       C  0.76096466  0.54218429  0.48588216     0.10900
C4259       C  0.76206554  0.56782245  0.47882429    -0.03400
C4260       C  0.74298810  0.57242964  0.46838160    -0.06200
C4261       C  0.72306879  0.55214156  0.46448172    -0.17000
C4262       C  0.72410778  0.52524403  0.47080794     0.02000
C4263       C  0.77780761  0.53757100  0.49819836     0.11900
C4264       C  0.78323653  0.59039572  0.48240138     0.62500
H4265       H  0.74308167  0.59257762  0.46343881     0.11900
C4266       C  0.70565270  0.50088705  0.46657319     0.54700
H4267       H  0.74310968  0.50121316  0.48674300     0.07700
C4268       C  0.76674910  0.54410685  0.51068510    -0.06100
C4269       C  0.78501947  0.54412458  0.52163813    -0.06800
C4270       C  0.81384989  0.53752053  0.52058250    -0.16400
C4271       C  0.82406522  0.52782650  0.50833435    -0.02000
C4272       C  0.80574138  0.52798459  0.49733211    -0.09500
C4273       C  0.73600250  0.55219760  0.51232524     0.64700
H4274       H  0.77725028  0.55108263  0.53104533     0.10200
C4275       C  0.85450359  0.51890019  0.50667685     0.63100
H4276       H  0.81349776  0.52206074  0.48777500     0.07600
F4277       F  0.71359723  0.47592891  0.47259014    -0.19900
F4278       F  0.70781914  0.49702897  0.45318389    -0.16100
F4279       F  0.67797323  0.50621434  0.46989333    -0.19600
F4280       F  0.81020588  0.57956861  0.48157872    -0.23000
F4281       F  0.77861447  0.59963679  0.49502861    -0.24500
F4282       F  0.78146823  0.61338124  0.47406793    -0.18500
F4283       F  0.86056667  0.49677027  0.51507170    -0.21000
F4284       F  0.87207999  0.54117513  0.50946268    -0.22100
F4285       F  0.85998915  0.51012836  0.49402517    -0.19300
F4286       F  0.72909802  0.55596955  0.52536127    -0.19400
F4287       F  0.71897642  0.53124254  0.50738468    -0.23200
F4288       F  0.73035675  0.57697988  0.50568156    -0.24800
C4289       C  0.85635159  0.45779691  0.61023081    -0.11600
C4290       C  0.82706596  0.45597548  0.61220338     0.10900
C4291       C  0.80921913  0.46575761  0.60185512    -0.03400
C4292       C  0.82106957  0.47944594  0.59075241    -0.06200
C4293       C  0.85029892  0.48275818  0.58914419    -0.17000
C4294       C  0.86815824  0.47026394  0.59879474     0.02000
C4295       C  0.81559714  0.44470435  0.62521362     0.11900
C4296       C  0.77755056  0.46236373  0.60261605     0.62500
H4297       H  0.80733102  0.48934374  0.58357803     0.11900
C4298       C  0.89980436  0.47082324  0.59714346     0.54700
H4299       H  0.87010767  0.45029530  0.61798533     0.07700
C4300       C  0.81590189  0.41569428  0.62872952    -0.06100
C4301       C  0.80236331  0.40663526  0.64044953    -0.06800
C4302       C  0.78847924  0.42532148  0.64898329    -0.16400
C4303       C  0.78963407  0.45449442  0.64579919    -0.02000
C4304       C  0.80322580  0.46355284  0.63414619    -0.09500
C4305       C  0.82933803  0.39408530  0.61981223     0.64700
H4306       H  0.80072336  0.38438785  0.64256168     0.10200
C4307       C  0.77552242  0.47692083  0.65403766     0.63100
H4308       H  0.80333866  0.48577912  0.63177224     0.07600
F4309       F  0.91336886  0.45427306  0.60643482    -0.19900
F4310       F  0.90955357  0.49796223  0.59833664    -0.16100
F4311       F  0.90670563  0.46069254  0.58488490    -0.19600
F4312       F  0.76679464  0.47961614  0.61223785    -0.23000
F4313       F  0.77102977  0.43474746  0.60551338    -0.24500
F4314       F  0.76450158  0.46928312  0.59086334    -0.18500
F4315       F  0.79482588  0.49761611  0.65703553    -0.21000
F4316       F  0.76508453  0.46655011  0.66570451    -0.22100
F4317       F  0.75357530  0.48886310  0.64697143    -0.19300
F4318       F  0.82540736  0.36694714  0.62436078    -0.19400
F4319       F  0.85794757  0.39874405  0.61908608    -0.23200
F4320       F  0.81771043  0.39600666  0.60739032    -0.24800
C4321       C  0.79575246  0.80793204  0.75000728    -0.11600
C4322       C  0.77213952  0.79165427  0.74705612     0.10900
C4323       C  0.75283358  0.80157610  0.73740019    -0.03400
C4324       C  0.76076476  0.82437260  0.72928609    -0.06200
C4325       C  0.78598373  0.83901776  0.73142685    -0.17000
C4326       C  0.80205788  0.83238785  0.74289050     0.02000
C4327       C  0.76737169  0.76576974  0.75507150     0.11900
C4328       C  0.72346431  0.78938889  0.73620485     0.62500
H4329       H  0.74788990  0.83006409  0.72089279     0.11900
C4330       C  0.82643578  0.84998211  0.74785732     0.54700
H4331       H  0.80929673  0.80161531  0.75809949     0.07700
C4332       C  0.77318664  0.73827306  0.75041125    -0.06100
C4333       C  0.76666133  0.71496110  0.75848601    -0.06800
C4334       C  0.75702294  0.71835241  0.77138438    -0.16400
C4335       C  0.75391204  0.74602300  0.77637405    -0.02000
C4336       C  0.75892102  0.76920120  0.76808784    -0.09500
C4337       C  0.78769194  0.73357892  0.73734560     0.64700
H4338       H  0.76876516  0.69380002  0.75473762     0.10200
C4339       C  0.74421148  0.75116145  0.79025733     0.63100
H4340       H  0.75576890  0.79039971  0.77163985     0.07600
F4341       F  0.85147369  0.83572734  0.74584356    -0.19900
F4342       F  0.82337120  0.85463898  0.76114992    -0.16100
F4343       F  0.82761761  0.87598294  0.74181633    -0.19600
F4344       F  0.70915647  0.79414325  0.74774003    -0.23000
F4345       F  0.72432639  0.76083323  0.73397563    -0.24500
F4346       F  0.70839397  0.80180788  0.72605776    -0.18500
F4347       F  0.74501363  0.77938376  0.79351949    -0.21000
F4348       F  0.76159810  0.73676857  0.79886925    -0.22100
F4349       F  0.71689788  0.74195034  0.79166639    -0.19300
F4350       F  0.79256987  0.70531428  0.73506351    -0.19400
F4351       F  0.81332853  0.74715421  0.73740624    -0.23200
F4352       F  0.77171768  0.74395360  0.72706748    -0.24800
C4353       C  0.82442355  0.98618184  0.73986760    -0.11600
C4354       C  0.80150694  0.00475458  0.73938118     0.10900
C4355       C  0.78174789  0.00261414  0.72897146    -0.03400
C4356       C  0.78632454  0.98233321  0.71909384    -0.06200
C4357       C  0.80975211  0.96417167  0.71947599    -0.17000
C4358       C  0.82805992  0.96494669  0.73052882     0.02000
C4359       C  0.79952557  0.02626315  0.74994333     0.11900
C4360       C  0.75625469  0.02188898  0.72823781     0.62500
H4361       H  0.77214482  0.98113093  0.71077610     0.11900
C4362       C  0.85141069  0.94364882  0.73302981     0.54700
H4363       H  0.83940787  0.98794799  0.74787305     0.07700
C4364       C  0.79199731  0.01897061  0.76295338    -0.06100
C4365       C  0.79553587  0.03898273  0.77297191    -0.06800
C4366       C  0.80620396  0.06578134  0.77031646    -0.16400
C4367       C  0.81156351  0.07385468  0.75720979    -0.02000
C4368       C  0.80857862  0.05372549  0.74721437    -0.09500
C4369       C  0.78153149  0.98975878  0.76635783     0.64700
H4370       H  0.79160781  0.03327940  0.78308046     0.10200
C4371       C  0.82039691  0.10368943  0.75392017     0.63100
H4372       H  0.81433174  0.05896858  0.73725173     0.07600
F4373       F  0.85276860  0.93694042  0.74623740    -0.19900
F4374       F  0.87681714  0.95508251  0.72933530    -0.16100
F4375       F  0.84712776  0.91884236  0.72634739    -0.19600
F4376       F  0.76479174  0.04947572  0.72700167    -0.23000
F4377       F  0.74044373  0.01915009  0.73949080    -0.24500
F4378       F  0.73916346  0.01566148  0.71762542    -0.18500
F4379       F  0.84596618  0.10966071  0.75975904    -0.21000
F4380       F  0.80032277  0.12234080  0.75847874    -0.22100
F4381       F  0.82306567  0.10778854  0.74055146    -0.19300
F4382       F  0.77141877  0.98846110  0.77903524    -0.19400
F4383       F  0.80322489  0.97049227  0.76526502    -0.23200
F4384       F  0.75993273  0.98225481  0.75797213    -0.24800
C4385       C  0.90316467  0.65580811  0.63768818    -0.11600
C4386       C  0.89241564  0.68321212  0.63733273     0.10900
C4387       C  0.87824242  0.69346591  0.62602465    -0.03400
C4388       C  0.87663303  0.67610380  0.61507940    -0.06200
C4389       C  0.88803811  0.64895726  0.61519548    -0.17000
C4390       C  0.90076213  0.63804030  0.62677288     0.02000
C4391       C  0.89651167  0.70151811  0.64871492     0.11900
C4392       C  0.86512207  0.72271940  0.62539456     0.62500
H4393       H  0.86688648  0.68384101  0.60613244     0.11900
C4394       C  0.91134151  0.60796524  0.62777788     0.54700
H4395       H  0.91334258  0.64851664  0.64660294     0.07700
C4396       C  0.87611196  0.70333402  0.65861489    -0.06100
C4397       C  0.87443320  0.72832025  0.66574227    -0.06800
C4398       C  0.89188678  0.75135843  0.66279514    -0.16400
C4399       C  0.91612522  0.74677788  0.65492754    -0.02000
C4400       C  0.91788343  0.72151136  0.64793651    -0.09500
C4401       C  0.85531416  0.67975991  0.66101648     0.64700
H4402       H  0.85764325  0.73089785  0.67276438     0.10200
C4403       C  0.93918845  0.76842473  0.65313516     0.63100
H4404       H  0.93409561  0.71864499  0.64063263     0.07600
F4405       F  0.92651835  0.60335456  0.63921939    -0.19900
F4406       F  0.92861710  0.60149412  0.61735884    -0.16100
F4407       F  0.88856100  0.59007579  0.62779715    -0.19600
F4408       F  0.88576540  0.74291633  0.62647815    -0.23000
F4409       F  0.84603743  0.72602887  0.63544006    -0.24500
F4410       F  0.85089441  0.72734973  0.61369740    -0.18500
F4411       F  0.96220553  0.75721848  0.64669141    -0.21000
F4412       F  0.94838498  0.77763866  0.66525521    -0.22100
F4413       F  0.92933239  0.79091921  0.64578968    -0.19300
F4414       F  0.83639476  0.68643338  0.67080307    -0.19400
F4415       F  0.86983106  0.65579244  0.66479857    -0.23200
F4416       F  0.84012145  0.67416333  0.64974001    -0.24800
C4417       C  0.54243693  0.00461427  0.50650731    -0.11600
C4418       C  0.54007152  0.02098324  0.49506966     0.10900
C4419       C  0.55980505  0.04261613  0.49285340    -0.03400
C4420       C  0.58010793  0.04831125  0.50261031    -0.06200
C4421       C  0.58115492  0.03348295  0.51460639    -0.17000
C4422       C  0.56298583  0.01007518  0.51623686     0.02000
C4423       C  0.51691744  0.01462145  0.48552993     0.11900
C4424       C  0.55859176  0.06047756  0.48049353     0.62500
H4425       H  0.59431755  0.06580602  0.50129033     0.11900
C4426       C  0.56466262  0.99122379  0.52822773     0.54700
H4427       H  0.52750267  0.98775769  0.50786729     0.07700
C4428       C  0.51956412  0.99270945  0.47631108    -0.06100
C4429       C  0.49685772  0.98721213  0.46783416    -0.06800
C4430       C  0.47072038  0.00121909  0.46883512    -0.16400
C4431       C  0.46795808  0.02310295  0.47808528    -0.02000
C4432       C  0.49138048  0.02981389  0.48615979    -0.09500
C4433       C  0.54544651  0.97376596  0.47604908     0.64700
H4434       H  0.49863637  0.97010217  0.46093003     0.10200
C4435       C  0.44010097  0.03814933  0.47981922     0.63100
H4436       H  0.48960802  0.04627969  0.49340297     0.07600
F4437       F  0.54606875  0.96897034  0.52743393    -0.19900
F4438       F  0.55832289  0.00640060  0.53935137    -0.16100
F4439       F  0.59150263  0.98010904  0.52930549    -0.19600
F4440       F  0.53343464  0.07513859  0.48002625    -0.23000
F4441       F  0.56054084  0.04364332  0.46953392    -0.24500
F4442       F  0.58032071  0.07971952  0.48004026    -0.18500
F4443       F  0.41955041  0.01896239  0.48313091    -0.21000
F4444       F  0.43259045  0.05145061  0.46824375    -0.22100
F4445       F  0.44143200  0.05818166  0.48959307    -0.19300
F4446       F  0.54449786  0.95489291  0.46576934    -0.19400
F4447       F  0.54708815  0.95850706  0.48758457    -0.23200
F4448       F  0.56958197  0.98954838  0.47473532    -0.24800
C4449       C  0.72814531  0.05660386  0.50406105    -0.11600
C4450       C  0.75508772  0.04674809  0.50751091     0.10900
C4451       C  0.76056544  0.03854236  0.52068601    -0.03400
C4452       C  0.73920578  0.04199305  0.53007419    -0.06200
C4453       C  0.71252784  0.05229622  0.52659488    -0.17000
C4454       C  0.70657267  0.05912403  0.51336219     0.02000
C4455       C  0.77743059  0.04838987  0.49731478     0.11900
C4456       C  0.78919459  0.02834562  0.52534433     0.62500
H4457       H  0.74364786  0.03763888  0.54031646     0.11900
C4458       C  0.67759853  0.06953382  0.50919216     0.54700
H4459       H  0.72442292  0.06328589  0.49404209     0.07700
C4460       C  0.77804784  0.03034240  0.48631544    -0.06100
C4461       C  0.79712901  0.03597679  0.47605470    -0.06800
C4462       C  0.81535816  0.05916553  0.47649338    -0.16400
C4463       C  0.81613235  0.07582010  0.48809058    -0.02000
C4464       C  0.79699114  0.07016082  0.49822373    -0.09500
C4465       C  0.75832812  0.00545541  0.48542998     0.64700
H4466       H  0.79689025  0.02311886  0.46732704     0.10200
C4467       C  0.83632597  0.10022623  0.48977556     0.63100
H4468       H  0.79625947  0.08363621  0.50674638     0.07600
F4469       F  0.67599989  0.07450022  0.49583332    -0.19900
F4470       F  0.67115696  0.09431999  0.51554845    -0.16100
F4471       F  0.65774930  0.04951550  0.51235709    -0.19600
F4472       F  0.80477046  0.05106303  0.52956936    -0.23000
F4473       F  0.80364523  0.01465946  0.51551572    -0.24500
F4474       F  0.78634993  0.00962211  0.53567343    -0.18500
F4475       F  0.82667805  0.12303087  0.48260625    -0.21000
F4476       F  0.86300352  0.09270429  0.48564796    -0.22100
F4477       F  0.83845208  0.10845336  0.50273605    -0.19300
F4478       F  0.76548813  0.98776583  0.47524313    -0.19400
F4479       F  0.73105431  0.01474844  0.48338500    -0.23200
F4480       F  0.75951761  0.99006425  0.49695442    -0.24800
C4481       C  0.64190358  0.18546644  0.63615852    -0.11600
C4482       C  0.61534068  0.18660499  0.64215000     0.10900
C4483       C  0.59338057  0.16915808  0.63760873    -0.03400
C4484       C  0.59788320  0.15353343  0.62621818    -0.06200
C4485       C  0.62375334  0.15419645  0.61973473    -0.17000
C4486       C  0.64665712  0.16894910  0.62507686     0.02000
C4487       C  0.61095130  0.20966871  0.65150162     0.11900
C4488       C  0.56507097  0.16630340  0.64422889     0.62500
H4489       H  0.58079832  0.14124380  0.62213926     0.11900
C4490       C  0.67553686  0.16786148  0.61883344     0.54700
H4491       H  0.65855140  0.19878700  0.63984947     0.07700
C4492       C  0.62871783  0.21283932  0.66251019    -0.06100
C4493       C  0.63314129  0.23986292  0.66730322    -0.06800
C4494       C  0.62040960  0.26351383  0.66142400    -0.16400
C4495       C  0.59848831  0.25963710  0.65217006    -0.02000
C4496       C  0.59440183  0.23246840  0.64716062    -0.09500
C4497       C  0.64501249  0.18887509  0.66887602     0.64700
H4498       H  0.64847678  0.24271213  0.67509391     0.10200
C4499       C  0.58056849  0.28386870  0.64716908     0.63100
H4500       H  0.58019637  0.22932337  0.63896477     0.07600
F4501       F  0.69484685  0.18411699  0.62556132    -0.19900
F4502       F  0.67399906  0.17757272  0.60605954    -0.16100
F4503       F  0.68527127  0.14042178  0.61885934    -0.19600
F4504       F  0.54411533  0.17442444  0.63557516    -0.23000
F4505       F  0.56270952  0.18221906  0.65546494    -0.24500
F4506       F  0.56097240  0.13845463  0.64762496    -0.18500
F4507       F  0.56105949  0.27524643  0.63791377    -0.21000
F4508       F  0.59735964  0.30397175  0.64146965    -0.22100
F4509       F  0.56610933  0.29569247  0.65751117    -0.19300
F4510       F  0.63898384  0.18811475  0.68211222    -0.19400
F4511       F  0.67355147  0.19334398  0.66735178    -0.23200
F4512       F  0.63834399  0.16295072  0.66366875    -0.24800
C4513       C  0.71336053  0.96282261  0.63953145    -0.11600
C4514       C  0.70701222  0.94651693  0.62835021     0.10900
C4515       C  0.71559015  0.91787089  0.62849981    -0.03400
C4516       C  0.72982157  0.90670711  0.63967441    -0.06200
C4517       C  0.73757795  0.92321934  0.65058833    -0.17000
C4518       C  0.72910904  0.95191867  0.65041831     0.02000
C4519       C  0.69389926  0.96047055  0.61622297     0.11900
C4520       C  0.71111263  0.89940531  0.61656395     0.62500
H4521       H  0.73725401  0.88515915  0.63950435     0.11900
C4522       C  0.73871591  0.97141540  0.66122750     0.54700
H4523       H  0.70735756  0.98479595  0.63931591     0.07700
C4524       C  0.66448338  0.96537936  0.61476592    -0.06100
C4525       C  0.65414248  0.97981540  0.60348336    -0.06800
C4526       C  0.67188841  0.99013772  0.59356090    -0.16400
C4527       C  0.70113991  0.98449614  0.59479811    -0.02000
C4528       C  0.71158116  0.96973760  0.60601247    -0.09500
C4529       C  0.64402945  0.95661697  0.62536682     0.64700
H4530       H  0.63199417  0.98510283  0.60278062     0.10200
C4531       C  0.72132282  0.99518446  0.58449767     0.63100
H4532       H  0.73397629  0.96613508  0.60711829     0.07600
F4533       F  0.72794442  0.99830244  0.65961985    -0.19900
F4534       F  0.76776797  0.97304097  0.66123566    -0.16100
F4535       F  0.72990484  0.96118867  0.67321317    -0.19600
F4536       F  0.72539425  0.91039045  0.60597211    -0.23000
F4537       F  0.68280624  0.89803562  0.61351679    -0.24500
F4538       F  0.72086261  0.87227684  0.61863457    -0.18500
F4539       F  0.72077847  0.02423567  0.58417541    -0.21000
F4540       F  0.71341428  0.98505553  0.57234700    -0.22100
F4541       F  0.74869423  0.98654970  0.58699874    -0.19300
F4542       F  0.61642375  0.96271290  0.62192120    -0.19400
F4543       F  0.65014313  0.97069685  0.63683951    -0.23200
F4544       F  0.64606913  0.92803049  0.62759095    -0.24800
C4545       C  0.24806558  0.71654734  0.75017337    -0.11600
C4546       C  0.26849610  0.73607782  0.74653160     0.10900
C4547       C  0.28546884  0.73035707  0.73544701    -0.03400
C4548       C  0.27743238  0.70840229  0.72688763    -0.06200
C4549       C  0.25462012  0.69078823  0.72982873    -0.17000
C4550       C  0.24191918  0.69317455  0.74234788     0.02000
C4551       C  0.27268445  0.76099734  0.75516245     0.11900
C4552       C  0.31223742  0.74674482  0.73297367     0.62500
H4553       H  0.28788886  0.70590509  0.71756339     0.11900
C4554       C  0.22160398  0.67172981  0.74782349     0.54700
H4555       H  0.23680639  0.71954813  0.75927843     0.07700
C4556       C  0.25993640  0.78756546  0.75262416    -0.06100
C4557       C  0.26560567  0.81022587  0.76120732    -0.06800
C4558       C  0.28137332  0.80629065  0.77276134    -0.16400
C4559       C  0.29141554  0.77887540  0.77586587    -0.02000
C4560       C  0.28753958  0.75692817  0.76686612    -0.09500
C4561       C  0.23961186  0.79153387  0.74122796     0.64700
H4562       H  0.25811942  0.83119947  0.75887575     0.10200
C4563       C  0.30539225  0.77263604  0.78892152     0.63100
H4564       H  0.29583828  0.73613537  0.76895805     0.07600
F4565       F  0.19531533  0.68391740  0.74917717    -0.19900
F4566       F  0.23108789  0.66298113  0.76002959    -0.16100
F4567       F  0.21931701  0.64816153  0.74000931    -0.19600
F4568       F  0.33042668  0.74295932  0.74346718    -0.23000
F4569       F  0.30645373  0.77507219  0.73160047    -0.24500
F4570       F  0.32575291  0.73772282  0.72175946    -0.18500
F4571       F  0.31249585  0.74450914  0.79028363    -0.21000
F4572       F  0.28679409  0.77952730  0.79875140    -0.22100
F4573       F  0.32967010  0.78811485  0.79035430    -0.19300
F4574       F  0.22955422  0.81885147  0.74048035    -0.19400
F4575       F  0.21690698  0.77382267  0.74284577    -0.23200
F4576       F  0.25255533  0.78529839  0.72950868    -0.24800
C4577       C  0.25472379  0.54034994  0.73934238    -0.11600
C4578       C  0.23301873  0.52215639  0.74314454     0.10900
C4579       C  0.20771075  0.52195951  0.73580211    -0.03400
C4580       C  0.20532113  0.53931819  0.72467262    -0.06200
C4581       C  0.22631581  0.55876111  0.72104225    -0.17000
C4582       C  0.25175867  0.55904117  0.72852690     0.02000
C4583       C  0.23621424  0.50454115  0.75527051     0.11900
C4584       C  0.18252457  0.50471193  0.74015541     0.62500
H4585       H  0.18601206  0.53859447  0.71902918     0.11900
C4586       C  0.27539450  0.57931373  0.72549073     0.54700
H4587       H  0.27377178  0.54033467  0.74520721     0.07700
C4588       C  0.24719179  0.47681013  0.75503492    -0.06100
C4589       C  0.24411705  0.45951615  0.76624917    -0.06800
C4590       C  0.23113928  0.46938101  0.77774842    -0.16400
C4591       C  0.22294428  0.49810701  0.77832936    -0.02000
C4592       C  0.22539422  0.51506858  0.76702499    -0.09500
C4593       C  0.26234666  0.46583212  0.74302993     0.64700
H4594       H  0.25118693  0.43785367  0.76598433     0.10200
C4595       C  0.21130458  0.51103835  0.79072519     0.63100
H4596       H  0.21763911  0.53651753  0.76711184     0.07600
F4597       F  0.28562457  0.57411376  0.71307350    -0.19900
F4598       F  0.29759504  0.57656224  0.73424773    -0.16100
F4599       F  0.26558119  0.60668462  0.72621191    -0.19600
F4600       F  0.17279753  0.51485774  0.75197630    -0.23000
F4601       F  0.19002932  0.47678417  0.74165000    -0.24500
F4602       F  0.16054482  0.50612115  0.73120863    -0.18500
F4603       F  0.21280520  0.54008865  0.79033129    -0.21000
F4604       F  0.22659674  0.50195280  0.80152670    -0.22100
F4605       F  0.18344294  0.50350500  0.79214347    -0.19300
F4606       F  0.27062338  0.43806885  0.74457055    -0.19400
F4607       F  0.28614116  0.48178349  0.74090753    -0.23200
F4608       F  0.24509492  0.46759812  0.73210186    -0.24800
C4609       C  0.04758717  0.75259539  0.71221023    -0.11600
C4610       C  0.03427696  0.76445989  0.70114795     0.10900
C4611       C  0.04694077  0.76128085  0.68871182    -0.03400
C4612       C  0.07142973  0.74467827  0.68767249    -0.06200
C4613       C  0.08409460  0.73128751  0.69858978    -0.17000
C4614       C  0.07240005  0.73605842  0.71117833     0.02000
C4615       C  0.00653004  0.77924764  0.70256445     0.11900
C4616       C  0.03444236  0.77518502  0.67652696     0.62500
H4617       H  0.08084318  0.74177639  0.67813374     0.11900
C4618       C  0.08523176  0.72297519  0.72338864     0.54700
H4619       H  0.03792482  0.75589913  0.72166144     0.07700
C4620       C  0.98069726  0.76439709  0.70259135    -0.06100
C4621       C  0.95519285  0.77959023  0.70121412    -0.06800
C4622       C  0.95486578  0.80898569  0.69996605    -0.16400
C4623       C  0.98053711  0.82388268  0.70091318    -0.02000
C4624       C  0.00596716  0.80873284  0.70237935    -0.09500
C4625       C  0.98023965  0.73260958  0.70387428     0.64700
H4626       H  0.93538499  0.76853326  0.70049753     0.10200
C4627       C  0.98102339  0.85570122  0.69999703     0.63100
H4628       H  0.02583461  0.81976371  0.70260751     0.07600
F4629       F  0.06987106  0.72933470  0.73448437    -0.19900
F4630       F  0.11220663  0.73300516  0.72521342    -0.16100
F4631       F  0.08604293  0.69406498  0.72210020    -0.19600
F4632       F  0.03524160  0.80407204  0.67783832    -0.23000
F4633       F  0.00684550  0.76685869  0.67480218    -0.24500
F4634       F  0.04913635  0.76823367  0.66531432    -0.18500
F4635       F  0.00741651  0.86632753  0.70281080    -0.21000
F4636       F  0.96216095  0.86700127  0.70882476    -0.22100
F4637       F  0.97363829  0.86419686  0.68747666    -0.19300
F4638       F  0.95317150  0.72211906  0.70311145    -0.19400
F4639       F  0.99152449  0.72484472  0.71587706    -0.23200
F4640       F  0.99589789  0.72044250  0.69400789    -0.24800
C4641       C  0.03037516  0.66863892  0.60753241    -0.11600
C4642       C  0.05474940  0.66170107  0.60049600     0.10900
C4643       C  0.05269178  0.65307320  0.58731881    -0.03400
C4644       C  0.02598285  0.64795349  0.58216667    -0.06200
C4645       C  0.00174217  0.65168776  0.58970931    -0.17000
C4646       C  0.00350764  0.66398823  0.60222936     0.02000
C4647       C  0.08072136  0.65782198  0.60813048     0.11900
C4648       C  0.07771031  0.64796921  0.57847107     0.62500
H4649       H  0.02411699  0.63929310  0.57238677     0.11900
C4650       C  0.97740302  0.67035279  0.61017338     0.54700
H4651       H  0.03258112  0.67556060  0.61758413     0.07700
C4652       C  0.09698545  0.68076270  0.61231349    -0.06100
C4653       C  0.11753704  0.67600141  0.62194349    -0.06800
C4654       C  0.12201079  0.64909048  0.62725165    -0.16400
C4655       C  0.10796225  0.62561625  0.62198066    -0.02000
C4656       C  0.08725189  0.63045212  0.61238420    -0.09500
C4657       C  0.09134273  0.71027388  0.60730711     0.64700
H4658       H  0.12877399  0.69362728  0.62612249     0.10200
C4659       C  0.11368062  0.59605907  0.62701391     0.63100
H4660       H  0.07475298  0.61316929  0.60872078     0.07600
F4661       F  0.98396703  0.68253063  0.62209794    -0.19900
F4662       F  0.96291100  0.64581404  0.61257237    -0.16100
F4663       F  0.96020100  0.68877532  0.60328588    -0.19600
F4664       F  0.07831644  0.62003545  0.57479006    -0.23000
F4665       F  0.10315090  0.65443541  0.58431471    -0.24500
F4666       F  0.07482446  0.66450102  0.56735467    -0.18500
F4667       F  0.10762899  0.59439603  0.64023486    -0.21000
F4668       F  0.14169623  0.58932340  0.62512767    -0.22100
F4669       F  0.09754381  0.57630576  0.62052480    -0.19300
F4670       F  0.11337845  0.72805068  0.61032726    -0.19400
F4671       F  0.06703305  0.72061264  0.61292949    -0.23200
F4672       F  0.08813388  0.71019202  0.59383114    -0.24800
C4673       C  0.53952495  0.51110248  0.49003590    -0.11600
C4674       C  0.51719695  0.53043964  0.49170427     0.10900
C4675       C  0.51862960  0.55687256  0.48535328    -0.03400
C4676       C  0.54232311  0.56304553  0.47767601    -0.06200
C4677       C  0.56480041  0.54395216  0.47597783    -0.17000
C4678       C  0.56308524  0.51720235  0.48202291     0.02000
C4679       C  0.49257564  0.52272360  0.50015080     0.11900
C4680       C  0.49524285  0.57864062  0.48665764     0.62500
H4681       H  0.54331733  0.58315521  0.47275406     0.11900
C4682       C  0.58607005  0.49549019  0.48011524     0.54700
H4683       H  0.53826541  0.49104782  0.49503967     0.07700
C4684       C  0.47136804  0.50394023  0.49590578    -0.06100
C4685       C  0.44940954  0.49701235  0.50456828    -0.06800
C4686       C  0.44750149  0.50844398  0.51724110    -0.16400
C4687       C  0.46745563  0.52899851  0.52106091    -0.02000
C4688       C  0.49004271  0.53518967  0.51256346    -0.09500
C4689       C  0.47194107  0.49104464  0.48231939     0.64700
H4690       H  0.43403597  0.48143688  0.50171049     0.10200
C4691       C  0.46537716  0.54393958  0.53411460     0.63100
H4692       H  0.50628865  0.54963826  0.51563684     0.07600
F4693       F  0.58747032  0.48827752  0.46703073    -0.19900
F4694       F  0.58109226  0.47124092  0.48724587    -0.16100
F4695       F  0.61166089  0.50635732  0.48408393    -0.19600
F4696       F  0.49433080  0.58847869  0.49936582    -0.23000
F4697       F  0.46958477  0.56683867  0.48348944    -0.24500
F4698       F  0.49926517  0.60148602  0.47844626    -0.18500
F4699       F  0.46800397  0.52482669  0.54427513    -0.21000
F4700       F  0.43964615  0.55747691  0.53490787    -0.22100
F4701       F  0.48617100  0.56396500  0.53560873    -0.19300
F4702       F  0.44884093  0.47408205  0.48006546    -0.19400
F4703       F  0.49582088  0.47472033  0.48087125    -0.23200
F4704       F  0.47182374  0.51209005  0.47294265    -0.24800
C4705       C  0.25844654  0.48381403  0.51046849    -0.11600
C4706       C  0.27026957  0.49356548  0.49877996     0.10900
C4707       C  0.29756237  0.50542148  0.49909536    -0.03400
C4708       C  0.31382636  0.50283769  0.51070923    -0.06200
C4709       C  0.30298258  0.48986217  0.52200857    -0.17000
C4710       C  0.27409018  0.48240019  0.52217456     0.02000
C4711       C  0.25408890  0.48907827  0.48636562     0.11900
C4712       C  0.30949518  0.52007676  0.48714731     0.62500
H4713       H  0.33565903  0.50923900  0.51075244     0.11900
C4714       C  0.25869852  0.47273848  0.53436059     0.54700
H4715       H  0.23694504  0.47628710  0.51034588     0.07700
C4716       C  0.25398676  0.46262658  0.48009522    -0.06100
C4717       C  0.23602862  0.45848787  0.46925396    -0.06800
C4718       C  0.21798934  0.47980382  0.46433954    -0.16400
C4719       C  0.21937519  0.50693548  0.47031721    -0.02000
C4720       C  0.23708180  0.51076646  0.48136097    -0.09500
C4721       C  0.27239537  0.43854736  0.48506200     0.64700
H4722       H  0.23550489  0.43792805  0.46478591     0.10200
C4723       C  0.20238502  0.53196987  0.46534014     0.63100
H4724       H  0.23735282  0.53070906  0.48642630     0.07600
F4725       F  0.23510740  0.48944256  0.53606583    -0.19900
F4726       F  0.27479348  0.47467050  0.54563889    -0.16100
F4727       F  0.25027029  0.44517545  0.53278646    -0.19600
F4728       F  0.29179670  0.54184794  0.48338720    -0.23000
F4729       F  0.31192855  0.50132812  0.47690655    -0.24500
F4730       F  0.33576813  0.53131114  0.48968027    -0.18500
F4731       F  0.17408694  0.52760451  0.46763097    -0.21000
F4732       F  0.20696432  0.53578856  0.45207503    -0.22100
F4733       F  0.20993358  0.55664356  0.47154965    -0.19300
F4734       F  0.27096929  0.41532555  0.47696506    -0.19400
F4735       F  0.26383246  0.43039959  0.49741996    -0.23200
F4736       F  0.30016706  0.44695123  0.48567083    -0.24800
C4737       C  0.46730488  0.27882524  0.54508221    -0.11600
C4738       C  0.49610192  0.28086458  0.54235393     0.10900
C4739       C  0.50717662  0.30765600  0.53909413    -0.03400
C4740       C  0.48949240  0.33179758  0.53981430    -0.06200
C4741       C  0.46103390  0.32994576  0.54353333    -0.17000
C4742       C  0.44946086  0.30264469  0.54542026     0.02000
C4743       C  0.51437078  0.25503285  0.54412893     0.11900
C4744       C  0.53774185  0.31062818  0.53512115     0.62500
H4745       H  0.49823442  0.35248414  0.53820397     0.11900
C4746       C  0.41852359  0.29731921  0.54804223     0.54700
H4747       H  0.45870288  0.25827663  0.54726092     0.07700
C4748       C  0.52480492  0.24712454  0.55663588    -0.06100
C4749       C  0.54134652  0.22250053  0.55790129    -0.06800
C4750       C  0.54865359  0.20531491  0.54712774    -0.16400
C4751       C  0.53841091  0.21359207  0.53452304    -0.02000
C4752       C  0.52110224  0.23802639  0.53331545    -0.09500
C4753       C  0.51825601  0.26459937  0.56871469     0.64700
H4754       H  0.54855134  0.21639125  0.56758015     0.10200
C4755       C  0.54638460  0.19750147  0.52230752     0.63100
H4756       H  0.51280280  0.24424747  0.52383351     0.07600
F4757       F  0.40914843  0.27566648  0.54016068    -0.19900
F4758       F  0.40164386  0.32041049  0.54538545    -0.16100
F4759       F  0.41527901  0.28952932  0.56100958    -0.19600
F4760       F  0.54244574  0.29547027  0.52381158    -0.23000
F4761       F  0.55531585  0.30048814  0.54490868    -0.24500
F4762       F  0.54476586  0.33836034  0.53272787    -0.18500
F4763       F  0.53723491  0.21103125  0.51101767    -0.21000
F4764       F  0.53433930  0.17114500  0.52260197    -0.22100
F4765       F  0.57534237  0.19491367  0.52164313    -0.19300
F4766       F  0.53275544  0.25506982  0.57967638    -0.19400
F4767       F  0.48979666  0.26341989  0.57133923    -0.23200
F4768       F  0.52573138  0.29228557  0.56668530    -0.24800
C4769       C  0.59049482  0.39862331  0.60990139    -0.11600
C4770       C  0.57700672  0.37287201  0.60793733     0.10900
C4771       C  0.58950965  0.34761419  0.61237354    -0.03400
C4772       C  0.61304071  0.34954913  0.62061887    -0.06200
C4773       C  0.62304253  0.37576721  0.62471389    -0.17000
C4774       C  0.61322695  0.40066689  0.61861369     0.02000
C4775       C  0.54798227  0.37380362  0.60303632     0.11900
C4776       C  0.57702025  0.31916830  0.60907944     0.62500
H4777       H  0.62234051  0.33078045  0.62484176     0.11900
C4778       C  0.62519361  0.42923920  0.62203251     0.54700
H4779       H  0.58106085  0.41744388  0.60573870     0.07700
C4780       C  0.52570245  0.38284629  0.61121898    -0.06100
C4781       C  0.49913259  0.38711403  0.60555616    -0.06800
C4782       C  0.49461348  0.38221609  0.59222298    -0.16400
C4783       C  0.51626020  0.37110683  0.58434737    -0.02000
C4784       C  0.54299979  0.36739705  0.58988764    -0.09500
C4785       C  0.53020340  0.38896107  0.62570875     0.64700
H4786       H  0.48211077  0.39587208  0.61129139     0.10200
C4787       C  0.51104956  0.36388421  0.57011833     0.63100
H4788       H  0.56044196  0.36054565  0.58389662     0.07600
F4789       F  0.61187963  0.45070251  0.61516570    -0.19900
F4790       F  0.65346735  0.42978055  0.61894384    -0.16100
F4791       F  0.62197508  0.43441108  0.63526891    -0.19600
F4792       F  0.57636844  0.31567292  0.59564716    -0.23000
F4793       F  0.54993648  0.31738725  0.61388470    -0.24500
F4794       F  0.59270763  0.29730386  0.61438925    -0.18500
F4795       F  0.50311334  0.38769811  0.56319256    -0.21000
F4796       F  0.48982280  0.34422118  0.56944860    -0.22100
F4797       F  0.53474489  0.35265236  0.56426129    -0.19300
F4798       F  0.50513741  0.39475047  0.63197815    -0.19400
F4799       F  0.54742454  0.41202990  0.62724732    -0.23200
F4800       F  0.54245116  0.36595379  0.63183697    -0.24800
C4801       C  0.30998648  0.61515456  0.62814152    -0.11600
C4802       C  0.31543591  0.58622296  0.62699625     0.10900
C4803       C  0.31114238  0.56894987  0.63821443    -0.03400
C4804       C  0.29845987  0.58055576  0.64957158    -0.06200
C4805       C  0.29066496  0.60905869  0.65028491    -0.17000
C4806       C  0.29826384  0.62687997  0.63963965     0.02000
C4807       C  0.32422216  0.57417287  0.61388004     0.11900
C4808       C  0.31910188  0.53805667  0.63798743     0.62500
H4809       H  0.29245000  0.56689429  0.65758051     0.11900
C4810       C  0.29293000  0.65829821  0.63977183     0.54700
H4811       H  0.31410399  0.62866775  0.61980074     0.07700
C4812       C  0.30420531  0.56464050  0.60453172    -0.06100
C4813       C  0.31346002  0.54873628  0.59359201    -0.06800
C4814       C  0.34221703  0.54378016  0.59110357    -0.16400
C4815       C  0.36220115  0.55645097  0.59959500    -0.02000
C4816       C  0.35294146  0.57116009  0.61089267    -0.09500
C4817       C  0.27314943  0.57130217  0.60618736     0.64700
H4818       H  0.29815599  0.53902107  0.58717292     0.10200
C4819       C  0.39334940  0.55300986  0.59702137     0.63100
H4820       H  0.36815558  0.57937790  0.61779934     0.07600
F4821       F  0.27094637  0.66476013  0.63133988    -0.19900
F4822       F  0.31679323  0.67224440  0.63563858    -0.16100
F4823       F  0.28648092  0.66796442  0.65215656    -0.19600
F4824       F  0.34744393  0.53529775  0.63527696    -0.23000
F4825       F  0.30373833  0.52431492  0.62845383    -0.24500
F4826       F  0.31405738  0.52506471  0.64989854    -0.18500
F4827       F  0.40945949  0.56889009  0.60553014    -0.21000
F4828       F  0.39919114  0.56163051  0.58436988    -0.22100
F4829       F  0.40097036  0.52510284  0.59850380    -0.19300
F4830       F  0.25728088  0.56171217  0.59572675    -0.19400
F4831       F  0.26942128  0.60009719  0.60695092    -0.23200
F4832       F  0.26309268  0.55901757  0.61751455    -0.24800
C4833       C  0.27415530  0.30039737  0.75455280    -0.11600
C4834       C  0.25058494  0.29008694  0.74782156     0.10900
C4835       C  0.22393855  0.30219715  0.75010706    -0.03400
C4836       C  0.22205587  0.32536360  0.75858827    -0.06200
C4837       C  0.24541536  0.33557510  0.76577216    -0.17000
C4838       C  0.27213189  0.32257586  0.76368552     0.02000
C4839       C  0.25459857  0.26645381  0.73845118     0.11900
C4840       C  0.19749158  0.29028139  0.74381702     0.62500
H4841       H  0.20164559  0.33489012  0.76004168     0.11900
C4842       C  0.29840254  0.33108674  0.77117558     0.54700
H4843       H  0.29422636  0.29029359  0.75276503     0.07700
C4844       C  0.26384414  0.27128537  0.72549029    -0.06100
C4845       C  0.26916721  0.24802986  0.71738450    -0.06800
C4846       C  0.26650016  0.22025644  0.72193547    -0.16400
C4847       C  0.25651511  0.21540809  0.73476057    -0.02000
C4848       C  0.25054214  0.23870332  0.74283770    -0.09500
C4849       C  0.26980103  0.30081731  0.72052657     0.64700
H4850       H  0.27769027  0.25133176  0.70768616     0.10200
C4851       C  0.25349392  0.18575222  0.73998144     0.63100
H4852       H  0.24371582  0.23544538  0.75283211     0.07600
F4853       F  0.32219820  0.31742650  0.76663465    -0.19900
F4854       F  0.29542405  0.32418407  0.78426849    -0.16100
F4855       F  0.30279136  0.35965866  0.76983076    -0.19600
F4856       F  0.19493916  0.26214338  0.74699313    -0.23000
F4857       F  0.19883266  0.29302082  0.73035542    -0.24500
F4858       F  0.17341234  0.30386717  0.74806573    -0.18500
F4859       F  0.24214617  0.18535824  0.75244297    -0.21000
F4860       F  0.27959122  0.17281166  0.74049757    -0.22100
F4861       F  0.23594806  0.17067820  0.73178462    -0.19300
F4862       F  0.27682502  0.30099802  0.70738325    -0.19400
F4863       F  0.29201608  0.31211661  0.72750175    -0.23200
F4864       F  0.24638298  0.31777839  0.72206961    -0.24800
C4865       C  0.26480620  0.97743798  0.75344769    -0.11600
C4866       C  0.27923775  0.00315184  0.75245619     0.10900
C4867       C  0.29876506  0.01030590  0.76241666    -0.03400
C4868       C  0.30407672  0.99107114  0.77266433    -0.06200
C4869       C  0.29133078  0.96441526  0.77326114    -0.17000
C4870       C  0.27088280  0.95760379  0.76354363     0.02000
C4871       C  0.27708391  0.02056694  0.74013387     0.11900
C4872       C  0.31466733  0.03796464  0.76204820     0.62500
H4873       H  0.31923434  0.99649068  0.78018526     0.11900
C4874       C  0.25682539  0.92902423  0.76330469     0.54700
H4875       H  0.24979924  0.97238813  0.74580629     0.07700
C4876       C  0.29308270  0.01357111  0.72892984    -0.06100
C4877       C  0.29596827  0.03358417  0.71879210    -0.06800
C4878       C  0.28428341  0.06081436  0.71954217    -0.16400
C4879       C  0.26662807  0.06715967  0.73039737    -0.02000
C4880       C  0.26301486  0.04664692  0.74038965    -0.09500
C4881       C  0.30864278  0.98565319  0.72808090     0.64700
H4882       H  0.30890152  0.02855636  0.71041756     0.10200
C4883       C  0.25305647  0.09589647  0.73192928     0.63100
H4884       H  0.25060433  0.05149379  0.74895676     0.07600
F4885       F  0.27705739  0.90805263  0.76271440    -0.19900
F4886       F  0.23916710  0.92607453  0.75257239    -0.16100
F4887       F  0.24087227  0.92550152  0.77446858    -0.19600
F4888       F  0.29602179  0.05997952  0.76382349    -0.23000
F4889       F  0.32806827  0.04124415  0.75014994    -0.24500
F4890       F  0.33498688  0.03937165  0.77178748    -0.18500
F4891       F  0.23874896  0.09829600  0.74365604    -0.21000
F4892       F  0.23400978  0.10050086  0.72184646    -0.22100
F4893       F  0.27347578  0.11647431  0.73167897    -0.19300
F4894       F  0.32389564  0.98336998  0.71662345    -0.19400
F4895       F  0.28962861  0.96379164  0.72842069    -0.23200
F4896       F  0.32723001  0.98292132  0.73849125    -0.24800
C4897       C  0.47002146  0.26983407  0.70804678    -0.11600
C4898       C  0.49555308  0.26110682  0.70235615     0.10900
C4899       C  0.49650268  0.23412750  0.69649649    -0.03400
C4900       C  0.47165515  0.21783546  0.69580163    -0.06200
C4901       C  0.44555885  0.22689313  0.70093252    -0.17000
C4902       C  0.44511374  0.25326216  0.70754140     0.02000
C4903       C  0.52039252  0.28113023  0.70187638     0.11900
C4904       C  0.52372803  0.22249600  0.69089581     0.62500
H4905       H  0.47247458  0.19757353  0.69103873     0.11900
C4906       C  0.41851309  0.26429645  0.71385791     0.54700
H4907       H  0.46966766  0.29018560  0.71274203     0.07700
C4908       C  0.52146080  0.30368446  0.69276306    -0.06100
C4909       C  0.54583612  0.32058166  0.69214820    -0.06800
C4910       C  0.57039044  0.31514696  0.69967961    -0.16400
C4911       C  0.56919490  0.29258666  0.70892131    -0.02000
C4912       C  0.54403024  0.27655300  0.71003909    -0.09500
C4913       C  0.49733982  0.30927820  0.68324094     0.64700
H4914       H  0.54608581  0.33792333  0.68526339     0.10200
C4915       C  0.59444973  0.28469122  0.71732043     0.63100
H4916       H  0.54289429  0.25955391  0.71708768     0.07600
F4917       F  0.42234165  0.29061816  0.71930155    -0.19900
F4918       F  0.41052945  0.24619319  0.72377504    -0.16100
F4919       F  0.39721896  0.26641584  0.70460950    -0.19600
F4920       F  0.54295723  0.21816714  0.70091856    -0.23000
F4921       F  0.53483900  0.24113569  0.68189757    -0.24500
F4922       F  0.51969972  0.19706903  0.68462999    -0.18500
F4923       F  0.60111424  0.30684336  0.72546677    -0.21000
F4924       F  0.61715695  0.27836409  0.70941916    -0.22100
F4925       F  0.58929315  0.26141904  0.72510960    -0.19300
F4926       F  0.50390122  0.32991109  0.67416250    -0.19400
F4927       F  0.47380832  0.31801889  0.69001605    -0.23200
F4928       F  0.49107867  0.28504645  0.67640813    -0.24800
C4929       C  0.36204676  0.34684163  0.63285840    -0.11600
C4930       C  0.38959186  0.34273643  0.63761431     0.10900
C4931       C  0.41199388  0.35825611  0.63223850    -0.03400
C4932       C  0.40656476  0.37507995  0.62124906    -0.06200
C4933       C  0.37950167  0.37722342  0.61577355    -0.17000
C4934       C  0.35655290  0.36413347  0.62194039     0.02000
C4935       C  0.39480087  0.31690414  0.64523169     0.11900
C4936       C  0.44200275  0.35686810  0.63732783     0.62500
H4937       H  0.42394330  0.38570455  0.61651177     0.11900
C4938       C  0.32697645  0.36688346  0.61644670     0.54700
H4939       H  0.34525413  0.33445801  0.63704281     0.07700
C4940       C  0.38731336  0.31429378  0.65853062    -0.06100
C4941       C  0.38705666  0.28736040  0.66409648    -0.06800
C4942       C  0.39239531  0.26341203  0.65649835    -0.16400
C4943       C  0.40217433  0.26620750  0.64354389    -0.02000
C4944       C  0.40393202  0.29330681  0.63818664    -0.09500
C4945       C  0.37749620  0.33934208  0.66645431     0.64700
H4946       H  0.37961959  0.28451584  0.67403416     0.10200
C4947       C  0.40772978  0.24073763  0.63504594     0.63100
H4948       H  0.40978715  0.29606960  0.62801930     0.07600
F4949       F  0.31881947  0.39481502  0.61653822    -0.19900
F4950       F  0.30777797  0.35173915  0.62374362    -0.16100
F4951       F  0.32622723  0.35703691  0.60371805    -0.19600
F4952       F  0.45907048  0.34477007  0.62795516    -0.23000
F4953       F  0.44464484  0.34164249  0.64883981    -0.24500
F4954       F  0.45123833  0.38386477  0.63976098    -0.18500
F4955       F  0.38295747  0.22613526  0.63320387    -0.21000
F4956       F  0.42733128  0.22334914  0.64106320    -0.22100
F4957       F  0.41801687  0.24826307  0.62287126    -0.19300
F4958       F  0.37533794  0.33278211  0.67964439    -0.19400
F4959       F  0.35134098  0.34806431  0.66200932    -0.23200
F4960       F  0.39634309  0.36120590  0.66519157    -0.24800
C4961       C  0.45886012  0.15113687  0.58696568    -0.11600
C4962       C  0.46018402  0.16145236  0.59977620     0.10900
C4963       C  0.48526015  0.17385192  0.60449775    -0.03400
C4964       C  0.50981333  0.17035271  0.59719904    -0.06200
C4965       C  0.50919506  0.15581061  0.58532527    -0.17000
C4966       C  0.48314519  0.14945615  0.57933415     0.02000
C4967       C  0.43739721  0.15441069  0.60885047     0.11900
C4968       C  0.48676481  0.18827683  0.61770321     0.62500
H4969       H  0.52992598  0.17615144  0.60142722     0.11900
C4970       C  0.48022360  0.14081360  0.56511522     0.54700
H4971       H  0.43921087  0.14298192  0.58316175     0.07700
C4972       C  0.41225041  0.17014244  0.60961267    -0.06100
C4973       C  0.39388160  0.16444629  0.62003030    -0.06800
C4974       C  0.40033938  0.14370214  0.62942732    -0.16400
C4975       C  0.42430998  0.12637111  0.62789560    -0.02000
C4976       C  0.44251287  0.13210733  0.61755208    -0.09500
C4977       C  0.40546544  0.19313546  0.59971466     0.64700
H4978       H  0.37515254  0.17715539  0.62134020     0.10200
C4979       C  0.43231518  0.10254535  0.63714862     0.63100
H4980       H  0.46168224  0.11981940  0.61658198     0.07600
F4981       F  0.46147419  0.15885702  0.55890255    -0.19900
F4982       F  0.46993860  0.11374243  0.56440579    -0.16100
F4983       F  0.50543184  0.14211780  0.55842954    -0.19600
F4984       F  0.48656276  0.16848324  0.62764862    -0.23000
F4985       F  0.46408165  0.20619862  0.61917885    -0.24500
F4986       F  0.51096810  0.20416481  0.61884968    -0.18500
F4987       F  0.43823684  0.07866579  0.62995533    -0.21000
F4988       F  0.41118365  0.09589487  0.64585764    -0.22100
F4989       F  0.45610151  0.10996180  0.64416473    -0.19300
F4990       F  0.38121056  0.20765786  0.60295605    -0.19400
F4991       F  0.40159423  0.18135232  0.58748643    -0.23200
F4992       F  0.42726157  0.21221389  0.59906812    -0.24800
C4993       C  0.03853285  0.02070133  0.50405310    -0.11600
C4994       C  0.01122754  0.01131630  0.50696034     0.10900
C4995       C  0.00683621  0.99484536  0.51831345    -0.03400
C4996       C  0.02977085  0.98947929  0.52674716    -0.06200
C4997       C  0.05728679  0.99810601  0.52374311    -0.17000
C4998       C  0.06189350  0.01346486  0.51206283     0.02000
C4999       C  0.98753985  0.01877811  0.49791398     0.11900
C5000       C  0.97842224  0.98156169  0.52105966     0.62500
H5001       H  0.02672214  0.97671919  0.53541120     0.11900
C5002       C  0.09145410  0.02024673  0.50767652     0.54700
H5003       H  0.04152668  0.03278556  0.49516042     0.07700
C5004       C  0.97170725  0.04367741  0.49956899    -0.06100
C5005       C  0.94972892  0.04964422  0.49067695    -0.06800
C5006       C  0.94438139  0.03284102  0.47954540    -0.16400
C5007       C  0.95956131  0.00722206  0.47825057    -0.02000
C5008       C  0.98075744  0.00053161  0.48758230    -0.09500
C5009       C  0.97953278  0.06506433  0.51000367     0.64700
H5010       H  0.93807596  0.06912234  0.49171364     0.10200
C5011       C  0.95421101  0.98750670  0.46690744     0.63100
H5012       H  0.99295171  0.98136652  0.48665476     0.07600
F5013       F  0.09155891  0.03512638  0.49599313    -0.19900
F5014       F  0.10627700  0.99548885  0.50585464    -0.16100
F5015       F  0.10483697  0.03618575  0.51711001    -0.19600
F5016       F  0.97181253  0.96305856  0.51110911    -0.23000
F5017       F  0.95766028  0.00192337  0.52172458    -0.24500
F5018       F  0.97847755  0.96675265  0.53276422    -0.18500
F5019       F  0.97096128  0.96365203  0.46765280    -0.21000
F5020       F  0.95985967  0.00096315  0.45518790    -0.22100
F5021       F  0.92642634  0.97908953  0.46706570    -0.19300
F5022       F  0.95996718  0.08664397  0.51073100    -0.19400
F5023       F  0.00535116  0.07663194  0.50701282    -0.23200
F5024       F  0.98125352  0.05250930  0.52221507    -0.24800
C5025       C  0.22870412  0.01104105  0.50560615    -0.11600
C5026       C  0.25311161  0.99448567  0.50420950     0.10900
C5027       C  0.25960594  0.97430682  0.51403571    -0.03400
C5028       C  0.24139785  0.97127814  0.52477628    -0.06200
C5029       C  0.21593141  0.98645894  0.52591211    -0.17000
C5030       C  0.20957114  0.00698685  0.51608485     0.02000
C5031       C  0.27040835  0.99656280  0.49193091     0.11900
C5032       C  0.28533614  0.95525946  0.51306525     0.62500
H5033       H  0.24677523  0.95607369  0.53230590     0.11900
C5034       C  0.18240303  0.02385451  0.51624783     0.54700
H5035       H  0.22430560  0.02667106  0.49813168     0.07700
C5036       C  0.26128650  0.98439971  0.47998136    -0.06100
C5037       C  0.28074711  0.98113234  0.46972449    -0.06800
C5038       C  0.30904169  0.98933392  0.47090740    -0.16400
C5039       C  0.31770501  0.00328607  0.48252383    -0.02000
C5040       C  0.29796498  0.00715892  0.49273034    -0.09500
C5041       C  0.23132047  0.97410540  0.47812508     0.64700
H5042       H  0.27424197  0.97090181  0.46075302     0.10200
C5043       C  0.34797469  0.01233425  0.48453851     0.63100
H5044       H  0.30439001  0.01700674  0.50180110     0.07600
F5045       F  0.17966160  0.04108194  0.50534217    -0.19900
F5046       F  0.18180578  0.04068977  0.52725017    -0.16100
F5047       F  0.15966793  0.00585855  0.51635156    -0.19600
F5048       F  0.30949101  0.97089722  0.51473664    -0.23000
F5049       F  0.28599423  0.94228861  0.50096594    -0.24500
F5050       F  0.28532104  0.93434083  0.52253565    -0.18500
F5051       F  0.35506973  0.03205858  0.47515927    -0.21000
F5052       F  0.36567733  0.98928818  0.48354059    -0.22100
F5053       F  0.35219544  0.02425090  0.49674429    -0.19300
F5054       F  0.22769750  0.96063244  0.46623846    -0.19400
F5055       F  0.21300048  0.99673048  0.47840448    -0.23200
F5056       F  0.22439058  0.95534003  0.48795692    -0.24800
C5057       C  0.15332458  0.84325406  0.63448412    -0.11600
C5058       C  0.12862825  0.84416282  0.64185317     0.10900
C5059       C  0.10817854  0.86513271  0.63955199    -0.03400
C5060       C  0.11107407  0.88196770  0.62831452    -0.06200
C5061       C  0.13353010  0.87755806  0.61966975    -0.17000
C5062       C  0.15578561  0.85915667  0.62305740     0.02000
C5063       C  0.12301614  0.81902804  0.64965314     0.11900
C5064       C  0.08373981  0.86921572  0.64885980     0.62500
H5065       H  0.09516676  0.89747137  0.62582168     0.11900
C5066       C  0.18085960  0.85469946  0.61416876     0.54700
H5067       H  0.16899361  0.82734941  0.63682780     0.07700
C5068       C  0.11385109  0.79427519  0.64326957    -0.06100
C5069       C  0.11906078  0.76846429  0.64936351    -0.06800
C5070       C  0.13389136  0.76701273  0.66119420    -0.16400
C5071       C  0.13957550  0.79179626  0.66836908    -0.02000
C5072       C  0.13421657  0.81772412  0.66232414    -0.09500
C5073       C  0.10146189  0.79474615  0.62949037     0.64700
H5074       H  0.11447325  0.74912840  0.64421413     0.10200
C5075       C  0.15198557  0.79211936  0.68208477     0.63100
H5076       H  0.14080797  0.83694072  0.66709667     0.07600
F5077       F  0.20117762  0.83772135  0.61997808    -0.19900
F5078       F  0.19304490  0.88024815  0.61121779    -0.16100
F5079       F  0.17213670  0.84194688  0.60272570    -0.19600
F5080       F  0.09407908  0.87554430  0.66118711    -0.23000
F5081       F  0.06790049  0.84500227  0.64969394    -0.24500
F5082       F  0.06622862  0.89096065  0.64483478    -0.18500
F5083       F  0.13553264  0.80902688  0.68998621    -0.21000
F5084       F  0.17885631  0.80308274  0.68165429    -0.22100
F5085       F  0.15313560  0.76574110  0.68778047    -0.19300
F5086       F  0.09158913  0.76863207  0.62585119    -0.19400
F5087       F  0.12160584  0.80276483  0.62052648    -0.23200
F5088       F  0.07913096  0.81330119  0.62886015    -0.24800
C5089       C  0.01666823  0.72215974  0.54017375    -0.11600
C5090       C  0.00609953  0.74843624  0.54410207     0.10900
C5091       C  0.97753953  0.75038744  0.54795296    -0.03400
C5092       C  0.96096143  0.72578288  0.54820585    -0.06200
C5093       C  0.97174357  0.69908893  0.54484114    -0.17000
C5094       C  0.00021705  0.69737904  0.54061887     0.02000
C5095       C  0.02582276  0.77312661  0.54492565     0.11900
C5096       C  0.96474698  0.77830035  0.55208498     0.62500
H5097       H  0.93929708  0.72715532  0.55136685     0.11900
C5098       C  0.01365583  0.66954211  0.53696477     0.54700
H5099       H  0.03837933  0.72112930  0.53705700     0.07700
C5100       C  0.04476811  0.77630326  0.55555144    -0.06100
C5101       C  0.06141012  0.80070950  0.55626300    -0.06800
C5102       C  0.06008309  0.82266336  0.54683587    -0.16400
C5103       C  0.04171043  0.81878145  0.53586419    -0.02000
C5104       C  0.02513129  0.79400961  0.53512863    -0.09500
C5105       C  0.04730586  0.75404135  0.56625542     0.64700
H5106       H  0.07556048  0.80274170  0.56452526     0.10200
C5107       C  0.03896673  0.84051711  0.52502006     0.63100
H5108       H  0.01087422  0.79093121  0.52695834     0.07600
F5109       F  0.04215336  0.67217596  0.53454915    -0.19900
F5110       F  0.00099742  0.65945726  0.52572811    -0.16100
F5111       F  0.01054153  0.65031246  0.54704516    -0.19600
F5112       F  0.96508170  0.79695146  0.54167236    -0.23000
F5113       F  0.97995352  0.78945456  0.56239992    -0.24500
F5114       F  0.93711990  0.77542628  0.55608336    -0.18500
F5115       F  0.06508448  0.84572434  0.51965733    -0.21000
F5116       F  0.02772178  0.86506553  0.53001882    -0.22100
F5117       F  0.02147265  0.83156404  0.51499378    -0.19300
F5118       F  0.06538243  0.76213169  0.57622250    -0.19400
F5119       F  0.05763842  0.72934942  0.56102260    -0.23200
F5120       F  0.02126448  0.74905230  0.57173540    -0.24800
C5121       C  0.98985080  0.85160394  0.60547100    -0.11600
C5122       C  0.96604872  0.85519779  0.59740296     0.10900
C5123       C  0.96907627  0.86516698  0.58442626    -0.03400
C5124       C  0.99581995  0.87330459  0.58028649    -0.06200
C5125       C  0.01907955  0.87211968  0.58877834    -0.17000
C5126       C  0.01645613  0.86063987  0.60145405     0.02000
C5127       C  0.93890940  0.85633744  0.60421484     0.11900
C5128       C  0.94462198  0.86968996  0.57502443     0.62500
H5129       H  0.99828167  0.88226573  0.57056753     0.11900
C5130       C  0.04084782  0.86096631  0.61109184     0.54700
H5131       H  0.98685891  0.84466908  0.61548626     0.07700
C5132       C  0.92709490  0.83242560  0.61020378    -0.06100
C5133       C  0.90745698  0.83655574  0.62019225    -0.06800
C5134       C  0.89920894  0.86370385  0.62403109    -0.16400
C5135       C  0.90887537  0.88746054  0.61705998    -0.02000
C5136       C  0.92854694  0.88325080  0.60708858    -0.09500
C5137       C  0.93732826  0.80288975  0.60728804     0.64700
H5138       H  0.89986988  0.81856638  0.62566288     0.10200
C5139       C  0.90027540  0.91713531  0.62079485     0.63100
H5140       H  0.93794562  0.90117171  0.60224815     0.07600
F5141       F  0.03353206  0.84968264  0.62311048    -0.19900
F5142       F  0.04930113  0.88840361  0.61304941    -0.16100
F5143       F  0.06311154  0.84551543  0.60620392    -0.19600
F5144       F  0.94057169  0.89822974  0.57311954    -0.23000
F5145       F  0.91982454  0.85812880  0.57950691    -0.24500
F5146       F  0.95076423  0.85741978  0.56310703    -0.18500
F5147       F  0.90661652  0.92201119  0.63383616    -0.21000
F5148       F  0.87168321  0.92052616  0.61877234    -0.22100
F5149       F  0.91404414  0.93717645  0.61337722    -0.19300
F5150       F  0.91588686  0.78370814  0.60907877    -0.19400
F5151       F  0.95932225  0.79603419  0.61564867    -0.23200
F5152       F  0.94633287  0.80065356  0.59446127    -0.24800
C5153       C  0.21013004  0.05949424  0.60819795    -0.11600
C5154       C  0.19098316  0.07006275  0.61746973     0.10900
C5155       C  0.16180739  0.06873841  0.61430273    -0.03400
C5156       C  0.15293610  0.05442414  0.60273537    -0.06200
C5157       C  0.17212123  0.04202029  0.59392856    -0.17000
C5158       C  0.20127064  0.04534265  0.59665288     0.02000
C5159       C  0.20239392  0.08095370  0.63053166     0.11900
C5160       C  0.14007085  0.08184775  0.62327168     0.62500
H5161       H  0.13071752  0.05128755  0.60089837     0.11900
C5162       C  0.22299790  0.03288579  0.58749704     0.54700
H5163       H  0.23235308  0.06123914  0.61041344     0.07700
C5164       C  0.21355150  0.06260993  0.64036043    -0.06100
C5165       C  0.22849943  0.07393574  0.65124772    -0.06800
C5166       C  0.23123760  0.10308921  0.65322747    -0.16400
C5167       C  0.21711171  0.12129094  0.64425124    -0.02000
C5168       C  0.20361420  0.11006498  0.63294208    -0.09500
C5169       C  0.20964922  0.03104932  0.63934382     0.64700
H5170       H  0.23941866  0.05995496  0.65798112     0.10200
C5171       C  0.21732620  0.15274452  0.64643220     0.63100
H5172       H  0.19492971  0.12415998  0.62560518     0.07600
F5173       F  0.25016335  0.03927473  0.59137252    -0.19900
F5174       F  0.21871177  0.04349267  0.57500676    -0.16100
F5175       F  0.22059710  0.00396238  0.58718810    -0.19600
F5176       F  0.14349900  0.11067018  0.62343928    -0.23000
F5177       F  0.14318415  0.07145375  0.63586985    -0.24500
F5178       F  0.11288567  0.07633727  0.61912055    -0.18500
F5179       F  0.20835884  0.15855013  0.65901125    -0.21000
F5180       F  0.19966954  0.16670656  0.63772966    -0.22100
F5181       F  0.24421979  0.16293715  0.64483880    -0.19300
F5182       F  0.21889410  0.01724237  0.65054466    -0.19400
F5183       F  0.22451100  0.02061976  0.62882311    -0.23200
F5184       F  0.18141420  0.02507186  0.63766026    -0.24800
loop_ 
_geom_bond_atom_site_label_1 
_geom_bond_atom_site_label_2 
_geom_bond_distance 
_geom_bond_site_symmetry_2 
_ccdc_geom_bond_type 
Zr1           O2   2.437   1_565  S
Zr1           O3   2.487       .  S
Zr1           O4   2.572   1_565  S
Zr1           O7   2.512       .  S
Zr1           O9   2.387       .  S
Zr1          O10   2.422       .  S
Zr1          O11   2.414       .  S
Zr1          O12   2.410       .  S
O2           H58   0.990       .  S
O2           H66   0.991       .  S
O3           C23   1.293       .  A
O4           C25   1.311       .  A
O5          Zr15   2.411       .  S
O5           C24   1.281       .  A
O6          Zr14   2.369       .  S
O6           C25   1.271   1_565  A
O7           C24   1.301       .  A
O8          Zr16   2.419       .  S
O8           C23   1.283       .  A
O9          Zr14   2.402       .  S
O9          Zr16   2.385       .  S
O10         Zr15   2.402       .  S
O10         Zr16   2.386       .  S
O10          H45   0.965       .  S
O11         Zr14   2.398       .  S
O11         Zr31   2.400       .  S
O11          H48   0.966       .  S
O12         Zr15   2.406       .  S
O12         Zr31   2.365       .  S
Zr13         O38   2.442       .  S
Zr13         O32   2.419       .  S
Zr13         O40   2.412       .  S
Zr13         O28   2.419       .  S
Zr13         O19   2.405       .  S
Zr13         O20   2.397       .  S
Zr13         O21   2.380       .  S
Zr13         O22   2.377       .  S
Zr14         O33   2.438       .  S
Zr14         O26   2.435       .  S
Zr14         O27   2.408       .  S
Zr14         O20   2.384       .  S
Zr14         O21   2.376       .  S
Zr15         O17   2.437       .  S
Zr15         O39   2.437       .  S
Zr15         O41   2.504       .  S
Zr15         O19   2.381       .  S
Zr15         O22   2.367       .  S
Zr16         O42   2.437       .  S
Zr16         O43   2.437       .  S
Zr16         O18   2.439       .  S
Zr16         O19   2.414       .  S
Zr16         O20   2.398       .  S
O17          H54   0.989       .  S
O18          H49   0.990       .  S
O18          H63   0.990       .  S
O20          H46   0.966       .  S
O21         Zr31   2.366       .  S
O22         Zr31   2.377       .  S
O22          H47   0.965       .  S
C23        C5029   1.515       .  S
C24        C4997   1.487       .  S
C25        C5157   1.512       .  S
O26          H62   0.989       .  S
O27          C29   1.277       .  A
O28          C29   1.282       .  A
C29        C5061   1.455       .  S
O30         Zr31   2.434       .  S
O30          H59   0.990   1_565  S
Zr31         O34   2.435       .  S
Zr31         O35   2.438       .  S
Zr31         O36   2.413       .  S
O32          C37   1.281       .  A
O33          H50   0.989       .  S
O33          H65   0.990       .  S
O34          H51   0.990       .  S
O35          H55   0.990       .  S
O35          H64   0.990       .  S
O36          C37   1.281       .  A
C37        C5125   1.459       .  S
O38          H57   0.989       .  S
O38          H61   0.990       .  S
O39          H53   0.990       .  S
O39          H60   0.990       .  S
O40          C44   1.281       .  A
O41          C44   1.295       .  A
O42          H52   0.990       .  S
O43          H56   0.990       .  S
C44        C5102   1.527       .  S
Zr67         O68   2.438       .  S
Zr67         O69   2.477       .  S
Zr67         O70   2.553       .  S
Zr67         O73   2.499       .  S
Zr67         O75   2.389       .  S
Zr67         O76   2.421       .  S
Zr67         O77   2.413       .  S
Zr67         O78   2.412       .  S
O68         H124   0.990       .  S
O68         H132   0.991       .  S
O69          C89   1.291       .  A
O70          C91   1.306       .  A
O71         Zr81   2.409       .  S
O71          C90   1.280       .  A
O72         Zr80   2.401       .  S
O72          C91   1.276       .  A
O73          C90   1.297       .  A
O74         Zr82   2.434       .  S
O74          C89   1.285       .  A
O75         Zr80   2.403       .  S
O75         Zr82   2.384       .  S
O76         Zr81   2.415       .  S
O76         Zr82   2.381       .  S
O76         H111   0.966       .  S
O77         Zr80   2.405       .  S
O77         Zr97   2.395       .  S
O77         H114   0.965       .  S
O78         Zr81   2.415       .  S
O78         Zr97   2.367       .  S
Zr79        O104   2.438       .  S
Zr79         O98   2.429       .  S
Zr79        O106   2.416       .  S
Zr79         O94   2.412       .  S
Zr79         O85   2.403       .  S
Zr79         O86   2.407       .  S
Zr79         O87   2.378       .  S
Zr79         O88   2.380       .  S
Zr80         O99   2.442       .  S
Zr80         O92   2.435       .  S
Zr80         O93   2.426       .  S
Zr80         O86   2.389       .  S
Zr80         O87   2.382       .  S
Zr81         O83   2.436       .  S
Zr81        O105   2.435       .  S
Zr81        O107   2.525       .  S
Zr81         O85   2.374       .  S
Zr81         O88   2.367       .  S
Zr82        O108   2.436       .  S
Zr82        O109   2.436       .  S
Zr82         O84   2.437       .  S
Zr82         O85   2.412       .  S
Zr82         O86   2.407       .  S
O83         H120   0.991       .  S
O84         H115   0.990       .  S
O84         H129   0.990       .  S
O86         H112   0.966       .  S
O87         Zr97   2.365       .  S
O88         Zr97   2.386       .  S
O88         H113   0.965       .  S
C89        C4878   1.511       .  S
C90        C4846   1.480       .  S
C91        C5166   1.513       .  S
O92         H128   0.990       .  S
O93          C95   1.282       .  A
O94          C95   1.280       .  A
C95        C4974   1.460       .  S
O96         Zr97   2.436       .  S
O96         H125   0.990       .  S
Zr97        O100   2.436       .  S
Zr97        O101   2.437       .  S
Zr97        O102   2.403       .  S
O98         C103   1.282       .  A
O99         H116   0.990       .  S
O99         H131   0.989       .  S
O100        H117   0.990       .  S
O101        H121   0.990       .  S
O101        H130   0.990       .  S
O102        C103   1.279       .  A
C103       C4942   1.460       .  S
O104        H123   0.990       .  S
O104        H127   0.990       .  S
O105        H119   0.990       .  S
O105        H126   0.990       .  S
O106        C110   1.282       .  A
O107        C110   1.300       .  A
O108        H118   0.990       .  S
O109        H122   0.990       .  S
C110       C4901   1.528       .  S
Zr133       O134   2.438       .  S
Zr133       O135   2.470       .  S
Zr133       O136   2.506       .  S
Zr133       O139   2.543       .  S
Zr133       O141   2.403       .  S
Zr133       O142   2.395       .  S
Zr133       O143   2.431       .  S
Zr133       O144   2.405       .  S
O134        H190   0.990       .  S
O134        H198   0.990       .  S
O135        C155   1.289       .  A
O136        C157   1.299       .  A
O137       Zr147   2.395       .  S
O137        C156   1.276       .  A
O138       Zr146   2.416       .  S
O138        C157   1.283       .  A
O139        C156   1.306       .  A
O140       Zr148   2.410       .  S
O140        C155   1.280       .  A
O141       Zr146   2.410       .  S
O141       Zr148   2.375       .  S
O142       Zr147   2.402       .  S
O142       Zr148   2.385       .  S
O142        H177   0.967       .  S
O143       Zr146   2.426       .  S
O143       Zr163   2.369       .  S
O143        H180   0.964       .  S
O144       Zr147   2.406       .  S
O144       Zr163   2.396       .  S
Zr145       O170   2.436       .  S
Zr145       O164   2.413       .  S
Zr145       O172   2.408       .  S
Zr145       O160   2.425       .  S
Zr145       O151   2.400       .  S
Zr145       O152   2.392       .  S
Zr145       O153   2.374       .  S
Zr145       O154   2.379       .  S
Zr146       O165   2.443       .  S
Zr146       O158   2.434       .  S
Zr146       O159   2.496       .  S
Zr146       O152   2.381       .  S
Zr146       O153   2.371       .  S
Zr147       O149   2.437       .  S
Zr147       O171   2.434       .  S
Zr147       O173   2.443       .  S
Zr147       O151   2.384       .  S
Zr147       O154   2.377       .  S
Zr148       O174   2.435       .  S
Zr148       O175   2.436       .  S
Zr148       O150   2.438       .  S
Zr148       O151   2.403       .  S
Zr148       O152   2.395       .  S
O149        H186   0.990       .  S
O150        H181   0.990       .  S
O150        H195   0.990       .  S
O152        H178   0.966       .  S
O153       Zr163   2.376       .  S
O154       Zr163   2.351       .  S
O154        H179   0.964       .  S
C155       C4709   1.489       .  S
C156       C4814   1.510       .  S
C157       C4686   1.497       .  S
O158        H194   0.990       .  S
O159        C161   1.296       .  A
O160        C161   1.285       .  A
C161       C4741   1.508       .  S
O162       Zr163   2.435       .  S
O162        H191   0.990       .  S
Zr163       O166   2.437       .  S
Zr163       O167   2.440       .  S
Zr163       O168   2.410       .  S
O164        C169   1.280       .  A
O165        H182   0.989       .  S
O165        H197   0.990       .  S
O166        H183   0.990       .  S
O167        H187   0.990       .  S
O167        H196   0.990       .  S
O168        C169   1.280       .  A
C169       C4782   1.454       .  S
O170        H189   0.990       .  S
O170        H193   0.990       .  S
O171        H185   0.990       .  S
O171        H192   0.990       .  S
O172        C176   1.281       .  A
O173        C176   1.285       .  A
O174        H184   0.990       .  S
O175        H188   0.990       .  S
C176       C4933   1.464       .  S
Zr199       O200   2.438       .  S
Zr199       O201   2.483       .  S
Zr199       O202   2.503       .  S
Zr199       O205   2.541       .  S
Zr199       O207   2.402       .  S
Zr199       O208   2.397       .  S
Zr199       O209   2.431       .  S
Zr199       O210   2.413       .  S
O200        H256   0.990       .  S
O200        H264   0.990       .  S
O201        C221   1.291       .  A
O202        C223   1.298       .  A
O203       Zr213   2.389       .  S
O203        C222   1.275       .  A
O204       Zr212   2.399       .  S
O204        C223   1.280       .  A
O205        C222   1.305       .  A
O206       Zr214   2.401       .  S
O206        C221   1.280       .  A
O207       Zr212   2.407       .  S
O207       Zr214   2.376       .  S
O208       Zr213   2.402       .  S
O208       Zr214   2.387       .  S
O208        H243   0.966       .  S
O209       Zr212   2.425       .  S
O209       Zr229   2.382       .  S
O209        H246   0.965       .  S
O210       Zr213   2.406       .  S
O210       Zr229   2.394       .  S
Zr211       O236   2.436       .  S
Zr211       O230   2.403       .  S
Zr211       O238   2.394       .  S
Zr211       O226   2.405       .  S
Zr211       O217   2.389       .  S
Zr211       O218   2.389       .  S
Zr211       O219   2.361       .  S
Zr211       O220   2.384       .  S
Zr212       O231   2.439       .  S
Zr212       O224   2.433       .  S
Zr212       O225   2.493       .  S
Zr212       O218   2.386       .  S
Zr212       O219   2.346       .  S
Zr213       O215   2.438       .  S
Zr213       O237   2.436       .  S
Zr213       O239   2.437       .  S
Zr213       O217   2.372       .  S
Zr213       O220   2.385       .  S
Zr214       O240   2.437       .  S
Zr214       O241   2.436       .  S
Zr214       O216   2.436       .  S
Zr214       O217   2.392       .  S
Zr214       O218   2.399       .  S
O215        H252   0.990       .  S
O216        H247   0.990       .  S
O216        H261   0.990       .  S
O218        H244   0.966       .  S
O219       Zr229   2.361       .  S
O220       Zr229   2.368       .  S
O220        H245   0.965       .  S
C221       C4581   1.514       .  S
C222       C4805   1.503       .  S
C223       C4549   1.489       .  S
O224        H260   0.990       .  S
O225        C227   1.295       .  A
O226        C227   1.281       .  A
C227       C4613   1.505       .  S
O228       Zr229   2.437       .  S
O228        H257   0.990       .  S
Zr229       O232   2.437       .  S
Zr229       O233   2.439       .  S
Zr229       O234   2.427       .  S
O230        C235   1.279       .  A
O231        H248   0.990       .  S
O231        H263   0.990       .  S
O232        H249   0.990       .  S
O233        H253   0.990       .  S
O233        H262   0.990       .  S
O234        C235   1.284       .  A
C235       C5070   1.457       .  S
O236        H255   0.990       .  S
O236        H259   0.990       .  S
O237        H251   0.990       .  S
O237        H258   0.990       .  S
O238        C242   1.279       .  A
O239        C242   1.282       .  A
O240        H250   0.990       .  S
O241        H254   0.990       .  S
C242       C4654   1.459       .  S
Zr265       O266   2.435   1_545  S
Zr265       O267   2.452       .  S
Zr265       O268   2.497       .  S
Zr265       O271   2.550       .  S
Zr265       O273   2.408       .  S
Zr265       O274   2.387       .  S
Zr265       O275   2.430       .  S
Zr265       O276   2.405       .  S
O266        H322   0.990       .  S
O266        H330   0.990       .  S
O267        C287   1.286       .  A
O268        C289   1.298       .  A
O269       Zr279   2.380       .  S
O269        C288   1.273       .  A
O270       Zr278   2.422       .  S
O270        C289   1.285       .  A
O271        C288   1.307       .  A
O272       Zr280   2.413       .  S
O272        C287   1.279       .  A
O273       Zr278   2.413       .  S
O273       Zr280   2.377       .  S
O274       Zr279   2.400       .  S
O274       Zr280   2.381       .  S
O274        H309   0.967       .  S
O275       Zr278   2.424       .  S
O275       Zr295   2.367       .  S
O275        H312   0.961       .  S
O276       Zr279   2.397       .  S
O276       Zr295   2.400       .  S
Zr277       O302   2.436       .  S
Zr277       O296   2.399       .  S
Zr277       O304   2.415       .  S
Zr277       O292   2.410       .  S
Zr277       O283   2.389       .  S
Zr277       O284   2.393       .  S
Zr277       O285   2.374       .  S
Zr277       O286   2.380       .  S
Zr278       O297   2.437       .  S
Zr278       O290   2.435       .  S
Zr278       O291   2.516       .  S
Zr278       O284   2.390       .  S
Zr278       O285   2.359       .  S
Zr279       O281   2.436       .  S
Zr279       O303   2.436       .  S
Zr279       O305   2.414       .  S
Zr279       O283   2.383       .  S
Zr279       O286   2.376       .  S
Zr280       O306   2.437       .  S
Zr280       O307   2.435       .  S
Zr280       O282   2.437       .  S
Zr280       O283   2.394       .  S
Zr280       O284   2.400       .  S
O281        H318   0.990       .  S
O282        H313   0.990       .  S
O282        H327   0.989       .  S
O284        H310   0.967       .  S
O285       Zr295   2.366       .  S
O286       Zr295   2.362       .  S
O286        H311   0.965       .  S
C287       C4453   1.474       .  S
C288       C4526   1.510   1_545  S
C289       C4421   1.502       .  S
O290        H326   0.990       .  S
O291        C293   1.299       .  A
O292        C293   1.282       .  A
C293       C4750   1.525       .  S
O294       Zr295   2.436       .  S
O294        H323   0.990       .  S
Zr295       O298   2.438       .  S
Zr295       O299   2.437       .  S
Zr295       O300   2.426       .  S
O296        C301   1.278       .  A
O297        H314   0.990       .  S
O297        H329   0.990       .  S
O298        H315   0.990       .  S
O299        H319   0.990       .  S
O299        H328   0.990       .  S
O300        C301   1.285       .  A
C301       C4965   1.460       .  S
O302        H321   0.990       .  S
O302        H325   0.990       .  S
O303        H317   0.990       .  S
O303        H324   0.990       .  S
O304        C308   1.282       .  A
O305        C308   1.280       .  A
O306        H316   0.990       .  S
O307        H320   0.990       .  S
C308       C4485   1.455       .  S
Zr331       O332   2.438       .  S
Zr331       O333   2.455       .  S
Zr331       O334   2.513       .  S
Zr331       O337   2.568       .  S
Zr331       O339   2.402       .  S
Zr331       O340   2.395       .  S
Zr331       O341   2.436       .  S
Zr331       O342   2.415       .  S
O332        H388   0.991       .  S
O332        H396   0.990       .  S
O333        C353   1.287       .  A
O334        C355   1.301       .  A
O335       Zr345   2.377       .  S
O335        C354   1.273       .  A
O336       Zr344   2.383       .  S
O336        C355   1.277       .  A
O337        C354   1.312       .  A
O338       Zr346   2.433       .  S
O338        C353   1.285       .  A
O339       Zr344   2.400       .  S
O339       Zr346   2.367       .  S
O340       Zr345   2.405       .  S
O340       Zr346   2.380       .  S
O340        H375   0.965       .  S
O341       Zr344   2.425       .  S
O341       Zr361   2.365       .  S
O341        H378   0.963       .  S
O342       Zr345   2.405       .  S
O342       Zr361   2.397       .  S
Zr343       O368   2.438       .  S
Zr343       O362   2.421       .  S
Zr343       O370   2.400       .  S
Zr343       O358   2.404       .  S
Zr343       O349   2.402       .  S
Zr343       O350   2.396       .  S
Zr343       O351   2.367       .  S
Zr343       O352   2.384       .  S
Zr344       O363   2.440       .  S
Zr344       O356   2.435       .  S
Zr344       O357   2.482       .  S
Zr344       O350   2.382       .  S
Zr344       O351   2.356       .  S
Zr345       O347   2.434       .  S
Zr345       O369   2.436       .  S
Zr345       O371   2.436       .  S
Zr345       O349   2.380       .  S
Zr345       O352   2.379       .  S
Zr346       O372   2.437       .  S
Zr346       O373   2.435       .  S
Zr346       O348   2.436       .  S
Zr346       O349   2.405       .  S
Zr346       O350   2.405       .  S
O347        H384   0.990       .  S
O348        H379   0.990       .  S
O348        H393   0.989       .  S
O350        H376   0.966       .  S
O351       Zr361   2.374       .  S
O352       Zr361   2.361       .  S
O352        H377   0.965       .  S
C353       C4357   1.489       .  S
C354       C4517   1.520       .  S
C355       C4325   1.494       .  S
O356        H392   0.990       .  S
O357        C359   1.292       .  A
O358        C359   1.279       .  A
C359       C4622   1.487       .  S
O360       Zr361   2.436       .  S
O360        H389   0.990       .  S
Zr361       O364   2.437       .  S
Zr361       O365   2.437       .  S
Zr361       O366   2.413       .  S
O362        C367   1.279       .  A
O363        H380   0.990       .  S
O363        H395   0.990       .  S
O364        H381   0.990       .  S
O365        H385   0.990       .  S
O365        H394   0.990       .  S
O366        C367   1.283       .  A
C367       C4398   1.486       .  S
O368        H387   0.990       .  S
O368        H391   0.990       .  S
O369        H383   0.990       .  S
O369        H390   0.990       .  S
O370        C374   1.279       .  A
O371        C374   1.284       .  A
O372        H382   0.990       .  S
O373        H386   0.990       .  S
C374       C5134   1.465       .  S
Zr397       O398   2.438       .  S
Zr397       O399   2.490       .  S
Zr397       O400   2.561       .  S
Zr397       O403   2.514       .  S
Zr397       O405   2.399       .  S
Zr397       O406   2.418       .  S
Zr397       O407   2.421       .  S
Zr397       O408   2.419       .  S
O398        H454   0.990       .  S
O398        H462   0.990       .  S
O399        C419   1.294       .  A
O400        C421   1.308       .  A
O401       Zr411   2.403       .  S
O401        C420   1.278       .  A
O402       Zr410   2.395       .  S
O402        C421   1.274       .  A
O403        C420   1.300       .  A
O404       Zr412   2.415       .  S
O404        C419   1.281       .  A
O405       Zr410   2.399       .  S
O405       Zr412   2.388       .  S
O406       Zr411   2.400       .  S
O406       Zr412   2.387       .  S
O406        H441   0.965       .  S
O407       Zr410   2.406       .  S
O407       Zr427   2.392       .  S
O407        H444   0.951       .  S
O408       Zr411   2.416       .  S
O408       Zr427   2.383       .  S
Zr409       O434   2.436       .  S
Zr409       O428   2.414       .  S
Zr409       O436   2.420       .  S
Zr409       O424   2.408       .  S
Zr409       O415   2.400       .  S
Zr409       O416   2.404       .  S
Zr409       O417   2.376       .  S
Zr409       O418   2.380       .  S
Zr410       O429   2.440       .  S
Zr410       O422   2.435       .  S
Zr410       O423   2.428       .  S
Zr410       O416   2.383       .  S
Zr410       O417   2.377       .  S
Zr411       O413   2.437       .  S
Zr411       O435   2.435       .  S
Zr411       O437   2.497       .  S
Zr411       O415   2.375       .  S
Zr411       O418   2.366       .  S
Zr412       O438   2.435       .  S
Zr412       O439   2.435       .  S
Zr412       O414   2.436       .  S
Zr412       O415   2.407       .  S
Zr412       O416   2.400       .  S
O413        H450   0.990       .  S
O414        H445   0.991       .  S
O414        H459   0.990       .  S
O416        H442   0.966       .  S
O417       Zr427   2.350       .  S
O418       Zr427   2.379       .  S
O418        H443   0.965       .  S
C419       C4270   1.500       .  S
C420       C4229   1.488       .  S
C421       C4293   1.515       .  S
O422        H458   0.990       .  S
O423        C425   1.281       .  A
O424        C425   1.282       .  A
C425       C4389   1.466       .  S
O426       Zr427   2.435       .  S
O426        H455   0.990       .  S
Zr427       O430   2.436       .  S
Zr427       O431   2.436   1_655  S
Zr427       O432   2.418       .  S
O428        C433   1.279       .  A
O429        H446   0.990       .  S
O429        H461   0.989       .  S
O430        H447   0.990       .  S
O431        H451   0.990       .  S
O431        H460   0.990       .  S
O432        C433   1.282       .  A
C433       C4645   1.458   1_655  S
O434        H453   0.990       .  S
O434        H457   0.990       .  S
O435        H449   0.990       .  S
O435        H456   0.990       .  S
O436        C440   1.283       .  A
O437        C440   1.295       .  A
O438        H448   0.990       .  S
O439        H452   0.990       .  S
C440       C5093   1.512       .  S
Zr463       O464   2.437       .  S
Zr463       O465   2.482       .  S
Zr463       O466   2.572       .  S
Zr463       O469   2.530       .  S
Zr463       O471   2.384       .  S
Zr463       O472   2.422       .  S
Zr463       O473   2.416       .  S
Zr463       O474   2.405       .  S
O464        H520   0.990       .  S
O464        H528   0.990       .  S
O465        C485   1.292       .  A
O466        C487   1.312       .  A
O467       Zr477   2.419       .  S
O467        C486   1.284       .  A
O468       Zr476   2.375       .  S
O468        C487   1.272       .  A
O469        C486   1.305       .  A
O470       Zr478   2.432       .  S
O470        C485   1.285       .  A
O471       Zr476   2.399       .  S
O471       Zr478   2.379       .  S
O472       Zr477   2.404       .  S
O472       Zr478   2.386       .  S
O472        H507   0.965       .  S
O473       Zr476   2.403       .  S
O473       Zr493   2.407       .  S
O473        H510   0.966       .  S
O474       Zr477   2.409       .  S
O474       Zr493   2.366       .  S
Zr475       O500   2.436       .  S
Zr475       O494   2.434       .  S
Zr475       O502   2.408       .  S
Zr475       O490   2.410       .  S
Zr475       O481   2.405       .  S
Zr475       O482   2.405       .  S
Zr475       O483   2.373       .  S
Zr475       O484   2.374       .  S
Zr476       O495   2.440       .  S
Zr476       O488   2.434       .  S
Zr476       O489   2.413       .  S
Zr476       O482   2.384       .  S
Zr476       O483   2.377       .  S
Zr477       O479   2.436       .  S
Zr477       O501   2.437       .  S
Zr477       O503   2.521       .  S
Zr477       O481   2.376       .  S
Zr477       O484   2.361       .  S
Zr478       O504   2.435       .  S
Zr478       O505   2.436       .  S
Zr478       O480   2.439       .  S
Zr478       O481   2.414       .  S
Zr478       O482   2.408       .  S
O479        H516   0.990       .  S
O480        H511   0.991       .  S
O480        H525   0.990       .  S
O482        H508   0.966       .  S
O483       Zr493   2.358       .  S
O484       Zr493   2.383       .  S
O484        H509   0.965       .  S
C485       C4197   1.519       .  S
C486       C4174   1.504       .  S
C487       C4302   1.513       .  S
O488        H524   0.990       .  S
O489        C491   1.279       .  A
O490        C491   1.282       .  A
C491       C4773   1.460       .  S
O492       Zr493   2.436       .  S
O492        H521   0.990       .  S
Zr493       O496   2.435       .  S
Zr493       O497   2.438       .  S
Zr493       O498   2.414       .  S
O494        C499   1.283       .  A
O495        H512   0.990       .  S
O495        H527   0.990       .  S
O496        H513   0.990       .  S
O497        H517   0.991       .  S
O497        H526   0.990       .  S
O498        C499   1.283       .  A
C499       C4494   1.477       .  S
O500        H519   0.990       .  S
O500        H523   0.990       .  S
O501        H515   0.990       .  S
O501        H522   0.990       .  S
O502        C506   1.281       .  A
O503        C506   1.299       .  A
O504        H514   0.990       .  S
O505        H518   0.990       .  S
C506       C4910   1.529       .  S
Zr529       O530   2.437       .  S
Zr529       O531   2.484       .  S
Zr529       O532   2.592       .  S
Zr529       O535   2.515       .  S
Zr529       O537   2.386       .  S
Zr529       O538   2.422       .  S
Zr529       O539   2.414       .  S
Zr529       O540   2.417       .  S
O530        H586   0.990       .  S
O530        H594   0.990       .  S
O531        C551   1.294       .  A
O532        C553   1.315       .  A
O533       Zr543   2.413       .  S
O533        C552   1.282       .  A
O534       Zr542   2.390       .  S
O534        C553   1.273       .  A
O535        C552   1.301       .  A
O536       Zr544   2.416       .  S
O536        C551   1.280       .  A
O537       Zr542   2.400       .  S
O537       Zr544   2.385       .  S
O538       Zr543   2.400       .  S
O538       Zr544   2.385       .  S
O538        H573   0.965       .  S
O539       Zr542   2.404       .  S
O539       Zr559   2.408       .  S
O539        H576   0.968       .  S
O540       Zr543   2.420       .  S
O540       Zr559   2.372       .  S
Zr541       O566   2.438       .  S
Zr541       O560   2.418       .  S
Zr541       O568   2.411       .  S
Zr541       O556   2.403       .  S
Zr541       O547   2.398       .  S
Zr541       O548   2.400       .  S
Zr541       O549   2.371       .  S
Zr541       O550   2.373       .  S
Zr542       O561   2.441       .  S
Zr542       O554   2.436       .  S
Zr542       O555   2.415       .  S
Zr542       O548   2.389       .  S
Zr542       O549   2.374       .  S
Zr543       O545   2.436       .  S
Zr543       O567   2.437       .  S
Zr543       O569   2.516       .  S
Zr543       O547   2.379       .  S
Zr543       O550   2.362       .  S
Zr544       O570   2.437       .  S
Zr544       O571   2.436       .  S
Zr544       O546   2.438       .  S
Zr544       O547   2.411       .  S
Zr544       O548   2.402       .  S
O545        H582   0.990       .  S
O546        H577   0.990       .  S
O546        H591   0.990       .  S
O548        H574   0.967       .  S
O549       Zr559   2.354       .  S
O550       Zr559   2.378       .  S
O550        H575   0.963       .  S
C551       C4005   1.496       .  S
C552       C3982   1.492       .  S
C553       C4133   1.531       .  S
O554        H590   0.990       .  S
O555        C557   1.280       .  A
O556        C557   1.280       .  A
C557       C4069   1.452       .  S
O558       Zr559   2.435       .  S
O558        H587   0.990       .  S
Zr559       O562   2.436       .  S
Zr559       O563   2.435       .  S
Zr559       O564   2.428       .  S
O560        C565   1.280       .  A
O561        H578   0.990       .  S
O561        H593   0.989       .  S
O562        H579   0.990       .  S
O563        H583   0.990       .  S
O563        H592   0.990       .  S
O564        C565   1.284       .  A
C565       C4101   1.459       .  S
O566        H585   0.990       .  S
O566        H589   0.991       .  S
O567        H581   0.990       .  S
O567        H588   0.990       .  S
O568        C572   1.281       .  A
O569        C572   1.298       .  A
O570        H580   0.990       .  S
O571        H584   0.990       .  S
C572       C4037   1.531       .  S
Zr595       O596   2.437       .  S
Zr595       O597   2.452       .  S
Zr595       O598   2.573       .  S
Zr595       O601   2.511       .  S
Zr595       O603   2.388       .  S
Zr595       O604   2.420       .  S
Zr595       O605   2.406       .  S
Zr595       O606   2.409       .  S
O596        H652   0.990       .  S
O596        H660   0.990       .  S
O597        C617   1.287       .  A
O598        C619   1.311       .  A
O599       Zr609   2.413       .  S
O599        C618   1.283       .  A
O600       Zr608   2.380       .  S
O600        C619   1.273       .  A
O601        C618   1.302       .  A
O602       Zr610   2.448       .  S
O602        C617   1.286       .  A
O603       Zr608   2.404       .  S
O603       Zr610   2.381       .  S
O604       Zr609   2.400       .  S
O604       Zr610   2.377       .  S
O604        H639   0.964       .  S
O605       Zr608   2.407       .  S
O605       Zr625   2.398       .  S
O605        H642   0.966       .  S
O606       Zr609   2.419       .  S
O606       Zr625   2.361       .  S
Zr607       O632   2.438       .  S
Zr607       O626   2.428       .  S
Zr607       O634   2.416       .  S
Zr607       O622   2.417       .  S
Zr607       O613   2.407       .  S
Zr607       O614   2.404       .  S
Zr607       O615   2.370       .  S
Zr607       O616   2.369       .  S
Zr608       O627   2.440       .  S
Zr608       O620   2.437       .  S
Zr608       O621   2.422       .  S
Zr608       O614   2.382       .  S
Zr608       O615   2.373       .  S
Zr609       O611   2.436       .  S
Zr609       O633   2.437       .  S
Zr609       O635   2.510       .  S
Zr609       O613   2.379       .  S
Zr609       O616   2.356       .  S
Zr610       O636   2.436       .  S
Zr610       O637   2.437       .  S
Zr610       O612   2.439       .  S
Zr610       O613   2.420       .  S
Zr610       O614   2.415       .  S
O611        H648   0.990       .  S
O612        H643   0.990       .  S
O612        H657   0.990       .  S
O614        H640   0.966       .  S
O615       Zr625   2.369       .  S
O616       Zr625   2.379       .  S
O616        H641   0.964       .  S
C617       C3845   1.498       .  S
C618       C3813   1.495       .  S
C619       C4142   1.520       .  S
O620        H656   0.990       .  S
O621        C623   1.280       .  A
O622        C623   1.281       .  A
C623       C3950   1.462       .  S
O624       Zr625   2.437       .  S
O624        H653   0.990       .  S
Zr625       O628   2.435       .  S
Zr625       O629   2.439       .  S
Zr625       O630   2.404       .  S
O626        C631   1.284       .  A
O627        H644   0.990       .  S
O627        H659   0.990       .  S
O628        H645   0.990       .  S
O629        H649   0.991       .  S
O629        H658   0.990       .  S
O630        C631   1.281       .  A
C631       C3909   1.463       .  S
O632        H651   0.990       .  S
O632        H655   0.990       .  S
O633        H647   0.990       .  S
O633        H654   0.990       .  S
O634        C638   1.280       .  A
O635        C638   1.299       .  A
O636        H646   0.990       .  S
O637        H650   0.990       .  S
C638       C3886   1.523       .  S
Zr661       O662   2.438   1_565  S
Zr661       O663   2.481       .  S
Zr661       O664   2.531       .  S
Zr661       O667   2.566   1_565  S
Zr661       O669   2.402       .  S
Zr661       O670   2.402       .  S
Zr661       O671   2.432       .  S
Zr661       O672   2.417       .  S
O662        H718   0.990       .  S
O662        H726   0.991       .  S
O663        C683   1.292       .  A
O664        C685   1.303       .  A
O665       Zr675   2.393       .  S
O665        C684   1.276   1_565  A
O666       Zr674   2.378       .  S
O666        C685   1.276       .  A
O667        C684   1.312       .  A
O668       Zr676   2.428       .  S
O668        C683   1.284       .  A
O669       Zr674   2.409       .  S
O669       Zr676   2.370       .  S
O670       Zr675   2.406       .  S
O670       Zr676   2.383       .  S
O670        H705   0.966       .  S
O671       Zr674   2.423       .  S
O671       Zr691   2.372       .  S
O671        H708   0.964       .  S
O672       Zr675   2.409       .  S
O672       Zr691   2.393       .  S
Zr673       O698   2.438       .  S
Zr673       O692   2.418       .  S
Zr673       O700   2.408       .  S
Zr673       O688   2.423       .  S
Zr673       O679   2.403       .  S
Zr673       O680   2.396       .  S
Zr673       O681   2.365       .  S
Zr673       O682   2.387       .  S
Zr674       O693   2.439       .  S
Zr674       O686   2.436       .  S
Zr674       O687   2.478       .  S
Zr674       O680   2.383       .  S
Zr674       O681   2.353       .  S
Zr675       O677   2.438       .  S
Zr675       O699   2.435       .  S
Zr675       O701   2.447       .  S
Zr675       O679   2.380       .  S
Zr675       O682   2.381       .  S
Zr676       O702   2.438       .  S
Zr676       O703   2.435       .  S
Zr676       O678   2.436       .  S
Zr676       O679   2.409       .  S
Zr676       O680   2.410       .  S
O677        H714   0.991       .  S
O678        H709   0.990       .  S
O678        H723   0.989       .  S
O680        H706   0.966       .  S
O681       Zr691   2.372       .  S
O682       Zr691   2.354       .  S
O682        H707   0.958       .  S
C683       C3694   1.518       .  S
C684       C3749   1.520       .  S
C685       C3662   1.498       .  S
O686        H722   0.990       .  S
O687        C689   1.292       .  A
O688        C689   1.283       .  A
C689       C3781   1.494       .  S
O690       Zr691   2.435   1_545  S
O690        H719   0.990       .  S
Zr691       O694   2.435       .  S
Zr691       O695   2.439       .  S
Zr691       O696   2.424       .  S
O692        C697   1.282       .  A
O693        H710   0.990       .  S
O693        H725   0.990       .  S
O694        H711   0.990   1_655  S
O695        H715   0.990       .  S
O695        H724   0.990       .  S
O696        C697   1.284       .  A
C697       C3726   1.469   1_655  S
O698        H717   0.990       .  S
O698        H721   0.990       .  S
O699        H713   0.990       .  S
O699        H720   0.990       .  S
O700        C704   1.280       .  A
O701        C704   1.284       .  A
O702        H712   0.990       .  S
O703        H716   0.990       .  S
C704       C4110   1.460       .  S
Zr727       O728   2.438       .  S
Zr727       O729   2.478       .  S
Zr727       O730   2.501       .  S
Zr727       O733   2.549       .  S
Zr727       O735   2.404       .  S
Zr727       O736   2.393       .  S
Zr727       O737   2.443       .  S
Zr727       O738   2.415       .  S
O728        H784   0.990       .  S
O728        H792   0.990       .  S
O729        C749   1.291       .  A
O730        C751   1.297       .  A
O731       Zr741   2.374       .  S
O731        C750   1.273       .  A
O732       Zr740   2.425       .  S
O732        C751   1.283       .  A
O733        C750   1.307       .  A
O734       Zr742   2.419       .  S
O734        C749   1.281       .  A
O735       Zr740   2.397       .  S
O735       Zr742   2.380       .  S
O736       Zr741   2.401       .  S
O736       Zr742   2.379       .  S
O736        H771   0.966       .  S
O737       Zr740   2.425       .  S
O737       Zr757   2.360       .  S
O737        H774   0.962       .  S
O738       Zr741   2.399       .  S
O738       Zr757   2.395       .  S
Zr739       O764   2.437       .  S
Zr739       O758   2.422       .  S
Zr739       O766   2.422       .  S
Zr739       O754   2.415       .  S
Zr739       O745   2.396       .  S
Zr739       O746   2.404       .  S
Zr739       O747   2.371       .  S
Zr739       O748   2.382       .  S
Zr740       O759   2.443       .  S
Zr740       O752   2.433       .  S
Zr740       O753   2.482       .  S
Zr740       O746   2.387       .  S
Zr740       O747   2.363       .  S
Zr741       O743   2.437       .  S
Zr741       O765   2.434       .  S
Zr741       O767   2.429       .  S
Zr741       O745   2.380       .  S
Zr741       O748   2.377       .  S
Zr742       O768   2.437       .  S
Zr742       O769   2.435       .  S
Zr742       O744   2.437       .  S
Zr742       O745   2.397       .  S
Zr742       O746   2.407       .  S
O743        H780   0.990       .  S
O744        H775   0.991       .  S
O744        H789   0.990       .  S
O746        H772   0.967       .  S
O747       Zr757   2.369       .  S
O748       Zr757   2.349       .  S
O748        H773   0.964       .  S
C749       C3557   1.487       .  S
C750       C3758   1.507       .  S
C751       C3534   1.491       .  S
O752        H788   0.990       .  S
O753        C755   1.292       .  A
O754        C755   1.280       .  A
C755       C3598   1.490       .  S
O756       Zr757   2.436       .  S
O756        H785   0.990       .  S
Zr757       O760   2.437       .  S
Zr757       O761   2.440       .  S
Zr757       O762   2.407       .  S
O758        C763   1.281       .  A
O759        H776   0.990       .  S
O759        H791   0.990       .  S
O760        H777   0.990       .  S
O761        H781   0.990       .  S
O761        H790   0.990       .  S
O762        C763   1.282       .  A
C763       C3941   1.467       .  S
O764        H783   0.990       .  S
O764        H787   0.990       .  S
O765        H779   0.990       .  S
O765        H786   0.990       .  S
O766        C770   1.284       .  A
O767        C770   1.283       .  A
O768        H778   0.990       .  S
O769        H782   0.990       .  S
C770       C3630   1.459       .  S
Zr793       O794   2.439       .  S
Zr793       O795   2.484       .  S
Zr793       O796   2.547       .  S
Zr793       O799   2.501       .  S
Zr793       O801   2.392       .  S
Zr793       O802   2.411       .  S
Zr793       O803   2.416       .  S
Zr793       O804   2.417       .  S
O794        H850   0.990       .  S
O794        H858   0.991       .  S
O795        C815   1.293       .  A
O796        C817   1.305       .  A
O797       Zr807   2.425       .  S
O797        C816   1.278       .  A
O798       Zr806   2.404       .  S
O798        C817   1.277       .  A
O799        C816   1.296       .  A
O800       Zr808   2.408       .  S
O800        C815   1.280       .  A
O801       Zr806   2.401       .  S
O801       Zr808   2.388       .  S
O802       Zr807   2.406       .  S
O802       Zr808   2.378       .  S
O802        H837   0.964       .  S
O803       Zr806   2.403       .  S
O803       Zr823   2.398       .  S
O803        H840   0.963       .  S
O804       Zr807   2.414       .  S
O804       Zr823   2.382       .  S
Zr805       O830   2.437       .  S
Zr805       O824   2.406       .  S
Zr805       O832   2.422       .  S
Zr805       O820   2.407       .  S
Zr805       O811   2.390       .  S
Zr805       O812   2.397       .  S
Zr805       O813   2.379       .  S
Zr805       O814   2.377       .  S
Zr806       O825   2.441       .  S
Zr806       O818   2.434       .  S
Zr806       O819   2.428       .  S
Zr806       O812   2.391       .  S
Zr806       O813   2.385       .  S
Zr807       O809   2.435       .  S
Zr807       O831   2.436       .  S
Zr807       O833   2.495       .  S
Zr807       O811   2.387       .  S
Zr807       O814   2.368       .  S
Zr808       O834   2.435       .  S
Zr808       O835   2.434       .  S
Zr808       O810   2.436       .  S
Zr808       O811   2.397       .  S
Zr808       O812   2.392       .  S
O809        H846   0.990       .  S
O810        H841   0.990       .  S
O810        H855   0.990       .  S
O812        H838   0.966       .  S
O813       Zr823   2.365       .  S
O814       Zr823   2.375       .  S
O814        H839   0.964       .  S
C815       C3438   1.500       .  S
C816       C3397   1.488       .  S
C817       C3493   1.512       .  S
O818        H854   0.990       .  S
O819        C821   1.282       .  A
O820        C821   1.280       .  A
C821       C3717   1.459       .  S
O822       Zr823   2.435       .  S
O822        H851   0.990       .  S
Zr823       O826   2.437       .  S
Zr823       O827   2.437       .  S
Zr823       O828   2.423       .  S
O824        C829   1.278       .  A
O825        H842   0.991       .  S
O825        H857   0.989       .  S
O826        H843   0.990       .  S
O827        H847   0.990       .  S
O827        H856   0.990       .  S
O828        C829   1.283       .  A
C829       C3461   1.467       .  S
O830        H849   0.990       .  S
O830        H853   0.990       .  S
O831        H845   0.990       .  S
O831        H852   0.990       .  S
O832        C836   1.282       .  A
O833        C836   1.295       .  A
O834        H844   0.990       .  S
O835        H848   0.990       .  S
C836       C4046   1.507       .  S
Zr859       O860   2.438   1_545  S
Zr859       O861   2.460       .  S
Zr859       O862   2.549       .  S
Zr859       O865   2.496       .  S
Zr859       O867   2.387       .  S
Zr859       O868   2.412       .  S
Zr859       O869   2.412       .  S
Zr859       O870   2.418       .  S
O860        H916   0.990       .  S
O860        H924   0.990       .  S
O861        C881   1.289       .  A
O862        C883   1.307       .  A
O863       Zr873   2.382       .  S
O863        C882   1.276       .  A
O864       Zr872   2.391       .  S
O864        C883   1.275       .  A
O865        C882   1.297       .  A
O866       Zr874   2.425       .  S
O866        C881   1.280       .  A
O867       Zr872   2.400       .  S
O867       Zr874   2.381       .  S
O868       Zr873   2.402       .  S
O868       Zr874   2.376       .  S
O868        H903   0.966       .  S
O869       Zr872   2.405       .  S
O869       Zr889   2.396       .  S
O869        H906   0.965       .  S
O870       Zr873   2.421       .  S
O870       Zr889   2.380       .  S
Zr871       O896   2.433       .  S
Zr871       O890   2.418       .  S
Zr871       O898   2.422       .  S
Zr871       O886   2.398       .  S
Zr871       O877   2.400       .  S
Zr871       O878   2.399       .  S
Zr871       O879   2.376       .  S
Zr871       O880   2.367       .  S
Zr872       O891   2.440       .  S
Zr872       O884   2.435       .  S
Zr872       O885   2.429       .  S
Zr872       O878   2.380       .  S
Zr872       O879   2.376       .  S
Zr873       O875   2.436       .  S
Zr873       O897   2.433       .  S
Zr873       O899   2.493       .  S
Zr873       O877   2.372       .  S
Zr873       O880   2.352       .  S
Zr874       O900   2.436       .  S
Zr874       O901   2.436       .  S
Zr874       O876   2.436       .  S
Zr874       O877   2.413       .  S
Zr874       O878   2.398       .  S
O875        H912   0.990       .  S
O876        H907   0.990       .  S
O876        H921   0.990       .  S
O878        H904   0.966       .  S
O879       Zr889   2.369       .  S
O880       Zr889   2.366       .  S
O880        H905   0.964       .  S
C881       C3342   1.505       .  S
C882       C3301   1.486       .  S
C883       C3502   1.508   1_545  S
O884        H920   0.990       .  S
O885        C887   1.283       .  A
O886        C887   1.279       .  A
C887       C3365   1.456       .  S
O888       Zr889   2.437       .  S
O888        H917   0.990       .  S
Zr889       O892   2.436       .  S
Zr889       O893   2.437       .  S
Zr889       O894   2.423       .  S
O890        C895   1.281       .  A
O891        H908   0.990       .  S
O891        H923   0.990       .  S
O892        H909   0.990       .  S
O893        H913   0.990       .  S
O893        H922   0.990       .  S
O894        C895   1.284       .  A
C895       C3621   1.465       .  S
O896        H915   0.989       .  S
O896        H919   0.989       .  S
O897        H911   0.990       .  S
O897        H918   0.990       .  S
O898        C902   1.282       .  A
O899        C902   1.295       .  A
O900        H910   0.990       .  S
O901        H914   0.990       .  S
C902       C3877   1.510       .  S
Zr925       O926   2.437       .  S
Zr925       O927   2.472       .  S
Zr925       O928   2.493       .  S
Zr925       O931   2.539       .  S
Zr925       O933   2.402       .  S
Zr925       O934   2.397       .  S
Zr925       O935   2.446       .  S
Zr925       O936   2.412       .  S
O926        H982   0.990       .  S
O926        H990   0.990       .  S
O927        C947   1.290       .  A
O928        C949   1.291       .  A
O929       Zr939   2.405       .  S
O929        C948   1.278       .  A
O930       Zr938   2.407       .  S
O930        C949   1.274       .  A
O931        C948   1.305       .  A
O932       Zr940   2.411       .  S
O932        C947   1.282       .  A
O933       Zr938   2.408       .  S
O933       Zr940   2.361       .  S
O934       Zr939   2.401       .  S
O934       Zr940   2.388       .  S
O934        H969   0.966       .  S
O935       Zr938   2.436       .  S
O935       Zr955   2.384       .  S
O935        H972   0.965       .  S
O936       Zr939   2.404       .  S
O936       Zr955   2.400       .  S
Zr937       O962   2.436       .  S
Zr937       O956   2.409       .  S
Zr937       O964   2.396       .  S
Zr937       O952   2.418       .  S
Zr937       O943   2.398       .  S
Zr937       O944   2.386       .  S
Zr937       O945   2.366       .  S
Zr937       O946   2.381       .  S
Zr938       O957   2.440       .  S
Zr938       O950   2.434       .  S
Zr938       O951   2.495       .  S
Zr938       O944   2.383       .  S
Zr938       O945   2.361       .  S
Zr939       O941   2.436       .  S
Zr939       O963   2.435       .  S
Zr939       O965   2.441       .  S
Zr939       O943   2.383       .  S
Zr939       O946   2.380       .  S
Zr940       O966   2.436       .  S
Zr940       O967   2.436       .  S
Zr940       O942   2.440       .  S
Zr940       O943   2.396       .  S
Zr940       O944   2.404       .  S
O941        H978   0.990       .  S
O942        H973   0.990       .  S
O942        H987   0.990       .  S
O944        H970   0.966       .  S
O945       Zr955   2.366       .  S
O946       Zr955   2.358       .  S
O946        H971   0.964       .  S
C947       C3237   1.508       .  S
C948       C3278   1.512       .  S
C949       C3214   1.513       .  S
O950        H986   0.990       .  S
O951        C953   1.296       .  A
O952        C953   1.283       .  A
C953       C3589   1.504       .  S
O954       Zr955   2.434       .  S
O954        H983   0.990       .  S
Zr955       O958   2.435       .  S
Zr955       O959   2.442       .  S
Zr955       O960   2.429       .  S
O956        C961   1.280       .  A
O957        H974   0.990       .  S
O957        H989   0.989       .  S
O958        H975   0.990       .  S
O959        H979   0.990       .  S
O959        H988   0.990       .  S
O960        C961   1.285       .  A
C961       C3374   1.467       .  S
O962        H981   0.990       .  S
O962        H985   0.990       .  S
O963        H977   0.990       .  S
O963        H984   0.990       .  S
O964        C968   1.278       .  A
O965        C968   1.285       .  A
O966        H976   0.990       .  S
O967        H980   0.990       .  S
C968       C3918   1.456       .  S
Zr991       O992   2.438       .  S
Zr991       O993   2.481       .  S
Zr991       O994   2.512       .  S
Zr991       O997   2.562       .  S
Zr991       O999   2.411       .  S
Zr991      O1000   2.399       .  S
Zr991      O1001   2.440       .  S
Zr991      O1002   2.412       .  S
O992       H1048   0.990       .  S
O992       H1056   0.990       .  S
O993       C1013   1.292       .  A
O994       C1015   1.300       .  A
O995      Zr1005   2.388       .  S
O995       C1014   1.274       .  A
O996      Zr1004   2.405       .  S
O996       C1015   1.278       .  A
O997       C1014   1.310       .  A
O998      Zr1006   2.432       .  S
O998       C1013   1.283       .  A
O999      Zr1004   2.414       .  S
O999      Zr1006   2.375       .  S
O1000     Zr1005   2.405       .  S
O1000     Zr1006   2.385       .  S
O1000      H1035   0.967       .  S
O1001     Zr1004   2.429       .  S
O1001     Zr1021   2.367       .  S
O1001      H1038   0.965       .  S
O1002     Zr1005   2.406       .  S
O1002     Zr1021   2.393       .  S
Zr1003     O1028   2.437       .  S
Zr1003     O1022   2.412       .  S
Zr1003     O1030   2.404       .  S
Zr1003     O1018   2.410       .  S
Zr1003     O1009   2.401       .  S
Zr1003     O1010   2.403       .  S
Zr1003     O1011   2.370       .  S
Zr1003     O1012   2.386       .  S
Zr1004     O1023   2.443       .  S
Zr1004     O1016   2.434       .  S
Zr1004     O1017   2.507       .  S
Zr1004     O1010   2.382       .  S
Zr1004     O1011   2.356       .  S
Zr1005     O1007   2.437       .  S
Zr1005     O1029   2.433       .  S
Zr1005     O1031   2.439       .  S
Zr1005     O1009   2.378       .  S
Zr1005     O1012   2.381       .  S
Zr1006     O1032   2.434       .  S
Zr1006     O1033   2.434       .  S
Zr1006     O1008   2.437       .  S
Zr1006     O1009   2.407       .  S
Zr1006     O1010   2.413       .  S
O1007      H1044   0.991       .  S
O1008      H1039   0.991       .  S
O1008      H1053   0.989       .  S
O1010      H1036   0.968       .  S
O1011     Zr1021   2.370       .  S
O1012     Zr1021   2.359       .  S
O1012      H1037   0.965       .  S
C1013      C3173   1.501       .  S
C1014      C3269   1.515       .  S
C1015      C3141   1.492       .  S
O1016      H1052   0.990       .  S
O1017      C1019   1.298       .  A
O1018      C1019   1.280       .  A
C1019      C3790   1.504       .  S
O1020     Zr1021   2.435       .  S
O1020      H1049   0.990       .  S
Zr1021     O1024   2.435       .  S
Zr1021     O1025   2.440       .  S
Zr1021     O1026   2.414       .  S
O1022      C1027   1.280       .  A
O1023      H1040   0.990       .  S
O1023      H1055   0.990       .  S
O1024      H1041   0.990       .  S
O1025      H1045   0.990       .  S
O1025      H1054   0.990       .  S
O1026      C1027   1.282       .  A
C1027      C4078   1.462       .  S
O1028      H1047   0.990       .  S
O1028      H1051   0.990       .  S
O1029      H1043   0.990       .  S
O1029      H1050   0.990       .  S
O1030      C1034   1.279       .  A
O1031      C1034   1.283       .  A
O1032      H1042   0.990       .  S
O1033      H1046   0.990       .  S
C1034      C3470   1.458       .  S
Zr1057     O1058   2.437       .  S
Zr1057     O1059   2.489       .  S
Zr1057     O1060   2.579       .  S
Zr1057     O1063   2.521       .  S
Zr1057     O1065   2.395       .  S
Zr1057     O1066   2.421       .  S
Zr1057     O1067   2.415       .  S
Zr1057     O1068   2.427       .  S
O1058      H1114   0.990       .  S
O1058      H1122   0.990       .  S
O1059      C1079   1.293       .  A
O1060      C1081   1.312       .  A
O1061     Zr1071   2.409       .  S
O1061      C1080   1.276       .  A
O1062     Zr1070   2.390       .  S
O1062      C1081   1.276       .  A
O1063      C1080   1.302       .  A
O1064     Zr1072   2.414       .  S
O1064      C1079   1.282       .  A
O1065     Zr1070   2.394       .  S
O1065     Zr1072   2.389       .  S
O1066     Zr1071   2.397       .  S
O1066     Zr1072   2.381       .  S
O1066      H1101   0.966       .  S
O1067     Zr1070   2.399       .  S
O1067     Zr1087   2.389       .  S
O1067      H1104   0.964       .  S
O1068     Zr1071   2.425       .  S
O1068     Zr1087   2.384       .  S
Zr1069     O1094   2.436       .  S
Zr1069     O1088   2.417       .  S
Zr1069     O1096   2.412       .  S
Zr1069     O1084   2.399       .  S
Zr1069     O1075   2.397       .  S
Zr1069     O1076   2.402       .  S
Zr1069     O1077   2.381       .  S
Zr1069     O1078   2.383       .  S
Zr1070     O1089   2.441       .  S
Zr1070     O1082   2.435       .  S
Zr1070     O1083   2.419       .  S
Zr1070     O1076   2.380       .  S
Zr1070     O1077   2.382       .  S
Zr1071     O1073   2.438       .  S
Zr1071     O1095   2.432       .  S
Zr1071     O1097   2.504       .  S
Zr1071     O1075   2.367       .  S
Zr1071     O1078   2.371       .  S
Zr1072     O1098   2.435       .  S
Zr1072     O1099   2.436       .  S
Zr1072     O1074   2.436       .  S
Zr1072     O1075   2.404       .  S
Zr1072     O1076   2.396       .  S
O1073      H1110   0.990       .  S
O1074      H1105   0.991       .  S
O1074      H1119   0.990       .  S
O1076      H1102   0.966       .  S
O1077     Zr1087   2.357       .  S
O1078     Zr1087   2.379       .  S
O1078      H1103   0.965       .  S
C1079      C4869   1.507       .  S
C1080      C4558   1.488       .  S
C1081      C3118   1.526       .  S
O1082      H1118   0.990       .  S
O1083      C1085   1.280       .  A
O1084      C1085   1.280       .  A
C1085      C3013   1.455       .  S
O1086     Zr1087   2.439       .  S
O1086      H1115   0.990       .  S
Zr1087     O1090   2.437       .  S
Zr1087     O1091   2.439       .  S
Zr1087     O1092   2.416       .  S
O1088      C1093   1.280       .  A
O1089      H1106   0.990       .  S
O1089      H1121   0.990       .  S
O1090      H1107   0.990       .  S
O1091      H1111   0.991       .  S
O1091      H1120   0.990       .  S
O1092      C1093   1.280       .  A
C1093      C3077   1.457       .  S
O1094      H1113   0.990       .  S
O1094      H1117   0.990       .  S
O1095      H1109   0.990       .  S
O1095      H1116   0.990       .  S
O1096      C1100   1.281       .  A
O1097      C1100   1.297       .  A
O1098      H1108   0.990       .  S
O1099      H1112   0.990       .  S
C1100      C3045   1.511       .  S
Zr1123     O1124   2.437   1_545  S
Zr1123     O1125   2.487       .  S
Zr1123     O1126   2.569   1_545  S
Zr1123     O1129   2.536       .  S
Zr1123     O1131   2.394       .  S
Zr1123     O1132   2.416       .  S
Zr1123     O1133   2.421       .  S
Zr1123     O1134   2.419       .  S
O1124      H1180   0.990       .  S
O1124      H1188   0.990       .  S
O1125      C1145   1.294       .  A
O1126      C1147   1.311       .  A
O1127     Zr1137   2.412       .  S
O1127      C1146   1.278       .  A
O1128     Zr1136   2.380       .  S
O1128      C1147   1.273   1_545  A
O1129      C1146   1.305       .  A
O1130     Zr1138   2.414       .  S
O1130      C1145   1.280       .  A
O1131     Zr1136   2.400       .  S
O1131     Zr1138   2.378       .  S
O1132     Zr1137   2.404       .  S
O1132     Zr1138   2.388       .  S
O1132      H1167   0.965       .  S
O1133     Zr1136   2.406       .  S
O1133     Zr1153   2.386       .  S
O1133      H1170   0.966       .  S
O1134     Zr1137   2.419       .  S
O1134     Zr1153   2.387       .  S
Zr1135     O1160   2.436       .  S
Zr1135     O1154   2.397       .  S
Zr1135     O1162   2.401       .  S
Zr1135     O1150   2.409       .  S
Zr1135     O1141   2.396       .  S
Zr1135     O1142   2.394       .  S
Zr1135     O1143   2.373       .  S
Zr1135     O1144   2.387       .  S
Zr1136     O1155   2.440       .  S
Zr1136     O1148   2.435       .  S
Zr1136     O1149   2.435       .  S
Zr1136     O1142   2.381       .  S
Zr1136     O1143   2.368       .  S
Zr1137     O1139   2.437       .  S
Zr1137     O1161   2.433       .  S
Zr1137     O1163   2.511       .  S
Zr1137     O1141   2.375       .  S
Zr1137     O1144   2.363       .  S
Zr1138     O1164   2.436       .  S
Zr1138     O1165   2.436       .  S
Zr1138     O1140   2.437       .  S
Zr1138     O1141   2.404       .  S
Zr1138     O1142   2.396       .  S
O1139      H1176   0.990       .  S
O1140      H1171   0.990       .  S
O1140      H1185   0.990       .  S
O1142      H1168   0.966       .  S
O1143     Zr1153   2.351       .  S
O1144     Zr1153   2.381       .  S
O1144      H1169   0.965       .  S
C1145      C3333   1.495       .  S
C1146      C3653   1.499       .  S
C1147      C3109   1.511       .  S
O1148      H1184   0.990       .  S
O1149      C1151   1.282       .  A
O1150      C1151   1.283       .  A
C1151      C2981   1.498       .  S
O1152     Zr1153   2.438       .  S
O1152      H1181   0.990       .  S
Zr1153     O1156   2.436       .  S
Zr1153     O1157   2.439       .  S
Zr1153     O1158   2.412       .  S
O1154      C1159   1.276       .  A
O1155      H1172   0.990       .  S
O1155      H1187   0.989       .  S
O1156      H1173   0.990       .  S
O1157      H1177   0.990       .  S
O1157      H1186   0.990       .  S
O1158      C1159   1.280       .  A
C1159      C2949   1.447       .  S
O1160      H1179   0.990       .  S
O1160      H1183   0.990       .  S
O1161      H1175   0.990       .  S
O1161      H1182   0.990       .  S
O1162      C1166   1.280       .  A
O1163      C1166   1.298       .  A
O1164      H1174   0.990       .  S
O1165      H1178   0.990       .  S
C1166      C2917   1.513       .  S
Zr1189     O1190   2.438       .  S
Zr1189     O1191   2.494       .  S
Zr1189     O1192   2.573       .  S
Zr1189     O1195   2.525       .  S
Zr1189     O1197   2.401       .  S
Zr1189     O1198   2.419       .  S
Zr1189     O1199   2.423       .  S
Zr1189     O1200   2.420       .  S
O1190      H1246   0.990       .  S
O1190      H1254   0.990       .  S
O1191      C1211   1.294       .  A
O1192      C1213   1.311       .  A
O1193     Zr1203   2.406       .  S
O1193      C1212   1.275       .  A
O1194     Zr1202   2.418       .  S
O1194      C1213   1.278       .  A
O1195      C1212   1.302       .  A
O1196     Zr1204   2.413       .  S
O1196      C1211   1.281       .  A
O1197     Zr1202   2.398       .  S
O1197     Zr1204   2.383       .  S
O1198     Zr1203   2.398       .  S
O1198     Zr1204   2.385       .  S
O1198      H1233   0.954       .  S
O1199     Zr1202   2.408       .  S
O1199     Zr1219   2.374       .  S
O1199      H1236   0.959       .  S
O1200     Zr1203   2.422       .  S
O1200     Zr1219   2.380       .  S
Zr1201     O1226   2.436       .  S
Zr1201     O1220   2.429       .  S
Zr1201     O1228   2.424       .  S
Zr1201     O1216   2.403       .  S
Zr1201     O1207   2.399       .  S
Zr1201     O1208   2.411       .  S
Zr1201     O1209   2.382       .  S
Zr1201     O1210   2.383       .  S
Zr1202     O1221   2.443       .  S
Zr1202     O1214   2.434       .  S
Zr1202     O1215   2.442       .  S
Zr1202     O1208   2.388       .  S
Zr1202     O1209   2.379       .  S
Zr1203     O1205   2.437       .  S
Zr1203     O1227   2.436       .  S
Zr1203     O1229   2.499       .  S
Zr1203     O1207   2.377       .  S
Zr1203     O1210   2.362       .  S
Zr1204     O1230   2.437       .  S
Zr1204     O1231   2.436       .  S
Zr1204     O1206   2.439       .  S
Zr1204     O1207   2.412       .  S
Zr1204     O1208   2.401       .  S
O1205      H1242   0.990       .  S
O1206      H1237   0.990       .  S
O1206      H1251   0.990       .  S
O1208      H1234   0.974       .  S
O1209     Zr1219   2.347       .  S
O1210     Zr1219   2.388       .  S
O1210      H1235   0.962       .  S
C1211      C4206   1.501       .  S
C1212      C4334   1.491       .  S
C1213      C2894   1.525       .  S
O1214      H1250   0.990       .  S
O1215      C1217   1.285       .  A
O1216      C1217   1.279       .  A
C1217      C2821   1.468       .  S
O1218     Zr1219   2.436       .  S
O1218      H1247   0.990       .  S
Zr1219     O1222   2.435       .  S
Zr1219     O1223   2.440       .  S
Zr1219     O1224   2.400       .  S
O1220      C1225   1.282       .  A
O1221      H1238   0.990       .  S
O1221      H1253   0.990       .  S
O1222      H1239   0.990       .  S
O1223      H1243   0.991       .  S
O1223      H1252   0.990       .  S
O1224      C1225   1.278       .  A
C1225      C2853   1.461       .  S
O1226      H1245   0.991       .  S
O1226      H1249   0.990       .  S
O1227      H1241   0.990       .  S
O1227      H1248   0.990       .  S
O1228      C1232   1.281       .  A
O1229      C1232   1.295       .  A
O1230      H1240   0.990       .  S
O1231      H1244   0.990       .  S
C1232      C3054   1.504       .  S
Zr1255     O1256   2.436       .  S
Zr1255     O1257   2.478       .  S
Zr1255     O1258   2.574       .  S
Zr1255     O1261   2.532       .  S
Zr1255     O1263   2.391       .  S
Zr1255     O1264   2.421       .  S
Zr1255     O1265   2.416       .  S
Zr1255     O1266   2.408       .  S
O1256      H1312   0.990       .  S
O1256      H1320   0.990       .  S
O1257      C1277   1.293       .  A
O1258      C1279   1.311       .  A
O1259     Zr1269   2.427       .  S
O1259      C1278   1.284       .  A
O1260     Zr1268   2.388       .  S
O1260      C1279   1.274       .  A
O1261      C1278   1.306       .  A
O1262     Zr1270   2.427       .  S
O1262      C1277   1.282       .  A
O1263     Zr1268   2.398       .  S
O1263     Zr1270   2.383       .  S
O1264     Zr1269   2.389       .  S
O1264     Zr1270   2.388       .  S
O1264      H1299   0.964       .  S
O1265     Zr1268   2.403       .  S
O1265     Zr1285   2.398       .  S
O1265      H1302   0.967       .  S
O1266     Zr1269   2.406       .  S
O1266     Zr1285   2.368       .  S
Zr1267     O1292   2.440       .  S
Zr1267     O1286   2.435       .  S
Zr1267     O1294   2.427       .  S
Zr1267     O1282   2.410       .  S
Zr1267     O1273   2.400       .  S
Zr1267     O1274   2.410       .  S
Zr1267     O1275   2.375       .  S
Zr1267     O1276   2.379       .  S
Zr1268     O1287   2.442       .  S
Zr1268     O1280   2.435       .  S
Zr1268     O1281   2.415       .  S
Zr1268     O1274   2.389       .  S
Zr1268     O1275   2.380       .  S
Zr1269     O1271   2.431       .  S
Zr1269     O1293   2.437       .  S
Zr1269     O1295   2.499       .  S
Zr1269     O1273   2.374       .  S
Zr1269     O1276   2.368       .  S
Zr1270     O1296   2.437       .  S
Zr1270     O1297   2.439       .  S
Zr1270     O1272   2.438       .  S
Zr1270     O1273   2.409       .  S
Zr1270     O1274   2.407       .  S
O1271      H1308   0.990       .  S
O1272      H1303   0.990       .  S
O1272      H1317   0.990       .  S
O1274      H1300   0.966       .  S
O1275     Zr1285   2.352       .  S
O1276     Zr1285   2.396       .  S
O1276      H1301   0.961       .  S
C1277      C3854   1.502       .  S
C1278      C3150   1.500       .  S
C1279      C2885   1.519       .  S
O1280      H1316   0.990       .  S
O1281      C1283   1.280       .  A
O1282      C1283   1.283       .  A
C1283      C2766   1.463       .  S
O1284     Zr1285   2.435       .  S
O1284      H1313   0.990       .  S
Zr1285     O1288   2.436       .  S
Zr1285     O1289   2.441   1_655  S
Zr1285     O1290   2.410       .  S
O1286      C1291   1.284       .  A
O1287      H1304   0.990       .  S
O1287      H1319   0.990       .  S
O1288      H1305   0.990       .  S
O1289      H1309   0.991       .  S
O1289      H1318   0.990       .  S
O1290      C1291   1.278       .  A
C1291      C2789   1.466   1_655  S
O1292      H1311   0.990       .  S
O1292      H1315   0.990       .  S
O1293      H1307   0.990       .  S
O1293      H1314   0.990       .  S
O1294      C1298   1.285       .  A
O1295      C1298   1.294       .  A
O1296      H1306   0.990       .  S
O1297      H1310   0.990       .  S
C1298      C2926   1.531       .  S
Zr1321     O1322   2.437       .  S
Zr1321     O1323   2.451       .  S
Zr1321     O1324   2.513       .  S
Zr1321     O1327   2.557       .  S
Zr1321     O1329   2.408       .  S
Zr1321     O1330   2.397       .  S
Zr1321     O1331   2.427       .  S
Zr1321     O1332   2.408       .  S
O1322      H1378   0.990       .  S
O1322      H1386   0.990       .  S
O1323      C1343   1.285       .  A
O1324      C1345   1.301       .  A
O1325     Zr1335   2.387       .  S
O1325      C1344   1.273       .  A
O1326     Zr1334   2.412       .  S
O1326      C1345   1.283       .  A
O1327      C1344   1.308       .  A
O1328     Zr1336   2.420       .  S
O1328      C1343   1.281       .  A
O1329     Zr1334   2.414       .  S
O1329     Zr1336   2.372       .  S
O1330     Zr1335   2.400       .  S
O1330     Zr1336   2.388       .  S
O1330      H1365   0.966       .  S
O1331     Zr1334   2.424       .  S
O1331     Zr1351   2.371       .  S
O1331      H1368   0.963       .  S
O1332     Zr1335   2.410       .  S
O1332     Zr1351   2.395       .  S
Zr1333     O1358   2.437       .  S
Zr1333     O1352   2.410       .  S
Zr1333     O1360   2.417       .  S
Zr1333     O1348   2.438       .  S
Zr1333     O1339   2.405       .  S
Zr1333     O1340   2.394       .  S
Zr1333     O1341   2.370       .  S
Zr1333     O1342   2.389       .  S
Zr1334     O1353   2.436       .  S
Zr1334     O1346   2.434       .  S
Zr1334     O1347   2.507       .  S
Zr1334     O1340   2.385       .  S
Zr1334     O1341   2.358       .  S
Zr1335     O1337   2.439       .  S
Zr1335     O1359   2.435       .  S
Zr1335     O1361   2.434       .  S
Zr1335     O1339   2.380       .  S
Zr1335     O1342   2.385       .  S
Zr1336     O1362   2.439       .  S
Zr1336     O1363   2.436       .  S
Zr1336     O1338   2.436       .  S
Zr1336     O1339   2.407       .  S
Zr1336     O1340   2.402       .  S
O1337      H1374   0.991       .  S
O1338      H1369   0.990       .  S
O1338      H1383   0.989       .  S
O1340      H1366   0.964       .  S
O1341     Zr1351   2.373       .  S
O1342     Zr1351   2.357       .  S
O1342      H1367   0.964       .  S
C1343      C4366   1.478       .  S
C1344      C2725   1.513       .  S
C1345      C4165   1.503       .  S
O1346      H1382   0.990       .  S
O1347      C1349   1.298       .  A
O1348      C1349   1.287       .  A
C1349      C2693   1.517       .  S
O1350     Zr1351   2.437       .  S
O1350      H1379   0.990       .  S
Zr1351     O1354   2.436       .  S
Zr1351     O1355   2.438       .  S
Zr1351     O1356   2.408       .  S
O1352      C1357   1.280       .  A
O1353      H1370   0.990       .  S
O1353      H1385   0.990       .  S
O1354      H1371   0.990       .  S
O1355      H1375   0.990       .  S
O1355      H1384   0.990       .  S
O1356      C1357   1.281       .  A
C1357      C2757   1.452       .  S
O1358      H1377   0.990       .  S
O1358      H1381   0.990       .  S
O1359      H1373   0.990       .  S
O1359      H1380   0.990       .  S
O1360      C1364   1.283       .  A
O1361      C1364   1.282       .  A
O1362      H1372   0.990       .  S
O1363      H1376   0.990       .  S
C1364      C2958   1.462       .  S
Zr1387     O1388   2.438   1_565  S
Zr1387     O1389   2.471       .  S
Zr1387     O1390   2.499       .  S
Zr1387     O1393   2.543   1_565  S
Zr1387     O1395   2.403       .  S
Zr1387     O1396   2.402       .  S
Zr1387     O1397   2.442       .  S
Zr1387     O1398   2.415       .  S
O1388      H1444   0.990       .  S
O1388      H1452   0.990       .  S
O1389      C1409   1.290       .  A
O1390      C1411   1.296       .  A
O1391     Zr1401   2.389       .  S
O1391      C1410   1.275   1_565  A
O1392     Zr1400   2.417       .  S
O1392      C1411   1.278       .  A
O1393      C1410   1.306       .  A
O1394     Zr1402   2.426       .  S
O1394      C1409   1.284       .  A
O1395     Zr1400   2.404       .  S
O1395     Zr1402   2.373       .  S
O1396     Zr1401   2.404       .  S
O1396     Zr1402   2.385       .  S
O1396      H1431   0.967       .  S
O1397     Zr1400   2.428       .  S
O1397     Zr1417   2.369       .  S
O1397      H1434   0.963       .  S
O1398     Zr1401   2.403       .  S
O1398     Zr1417   2.392       .  S
Zr1399     O1424   2.439       .  S
Zr1399     O1418   2.419       .  S
Zr1399     O1426   2.394       .  S
Zr1399     O1414   2.400       .  S
Zr1399     O1405   2.400       .  S
Zr1399     O1406   2.396       .  S
Zr1399     O1407   2.368       .  S
Zr1399     O1408   2.385       .  S
Zr1400     O1419   2.440       .  S
Zr1400     O1412   2.432       .  S
Zr1400     O1413   2.487       .  S
Zr1400     O1406   2.383       .  S
Zr1400     O1407   2.360       .  S
Zr1401     O1403   2.437       .  S
Zr1401     O1425   2.433       .  S
Zr1401     O1427   2.438       .  S
Zr1401     O1405   2.380       .  S
Zr1401     O1408   2.381       .  S
Zr1402     O1428   2.436       .  S
Zr1402     O1429   2.436       .  S
Zr1402     O1404   2.436       .  S
Zr1402     O1405   2.403       .  S
Zr1402     O1406   2.402       .  S
O1403      H1440   0.991       .  S
O1404      H1435   0.990       .  S
O1404      H1449   0.989       .  S
O1406      H1432   0.966       .  S
O1407     Zr1417   2.369       .  S
O1408     Zr1417   2.358       .  S
O1408      H1433   0.965       .  S
C1409      C3685   1.498       .  S
C1410      C2734   1.508       .  S
C1411      C3310   1.484       .  S
O1412      H1448   0.990       .  S
O1413      C1415   1.294       .  A
O1414      C1415   1.278       .  A
C1415      C2661   1.492       .  S
O1416     Zr1417   2.438       .  S
O1416      H1445   0.990   1_565  S
Zr1417     O1420   2.437       .  S
Zr1417     O1421   2.440       .  S
Zr1417     O1422   2.412       .  S
O1418      C1423   1.281       .  A
O1419      H1436   0.990       .  S
O1419      H1451   0.989       .  S
O1420      H1437   0.990       .  S
O1421      H1441   0.990       .  S
O1421      H1450   0.990       .  S
O1422      C1423   1.282       .  A
C1423      C3022   1.465       .  S
O1424      H1443   0.990       .  S
O1424      H1447   0.990       .  S
O1425      H1439   0.990       .  S
O1425      H1446   0.990       .  S
O1426      C1430   1.277       .  A
O1427      C1430   1.283       .  A
O1428      H1438   0.990       .  S
O1429      H1442   0.990       .  S
C1430      C2862   1.454       .  S
Zr1453     O1454   2.437       .  S
Zr1453     O1455   2.453       .  S
Zr1453     O1456   2.482       .  S
Zr1453     O1459   2.558       .  S
Zr1453     O1461   2.411       .  S
Zr1453     O1462   2.396       .  S
Zr1453     O1463   2.452       .  S
Zr1453     O1464   2.407       .  S
O1454      H1510   0.990       .  S
O1454      H1518   0.990       .  S
O1455      C1475   1.287       .  A
O1456      C1477   1.289       .  A
O1457     Zr1467   2.392       .  S
O1457      C1476   1.274       .  A
O1458     Zr1466   2.420       .  S
O1458      C1477   1.276       .  A
O1459      C1476   1.309       .  A
O1460     Zr1468   2.447       .  S
O1460      C1475   1.286       .  A
O1461     Zr1466   2.418       .  S
O1461     Zr1468   2.360       .  S
O1462     Zr1467   2.406       .  S
O1462     Zr1468   2.385       .  S
O1462      H1497   0.967       .  S
O1463     Zr1466   2.439       .  S
O1463     Zr1483   2.354       .  S
O1463      H1500   0.964       .  S
O1464     Zr1467   2.403       .  S
O1464     Zr1483   2.393       .  S
Zr1465     O1490   2.440       .  S
Zr1465     O1484   2.445       .  S
Zr1465     O1492   2.403       .  S
Zr1465     O1480   2.414       .  S
Zr1465     O1471   2.412       .  S
Zr1465     O1472   2.403       .  S
Zr1465     O1473   2.366       .  S
Zr1465     O1474   2.384       .  S
Zr1466     O1485   2.438       .  S
Zr1466     O1478   2.434       .  S
Zr1466     O1479   2.522       .  S
Zr1466     O1472   2.384       .  S
Zr1466     O1473   2.365       .  S
Zr1467     O1469   2.438       .  S
Zr1467     O1491   2.434       .  S
Zr1467     O1493   2.429       .  S
Zr1467     O1471   2.385       .  S
Zr1467     O1474   2.386       .  S
Zr1468     O1494   2.437       .  S
Zr1468     O1495   2.435       .  S
Zr1468     O1470   2.435       .  S
Zr1468     O1471   2.409       .  S
Zr1468     O1472   2.412       .  S
O1469      H1506   0.991       .  S
O1470      H1501   0.991       .  S
O1470      H1515   0.990       .  S
O1472      H1498   0.966       .  S
O1473     Zr1483   2.383       .  S
O1474     Zr1483   2.355       .  S
O1474      H1499   0.965       .  S
C1475      C4590   1.500       .  S
C1476      C2629   1.517       .  S
C1477      C4837   1.511       .  S
O1478      H1514   0.990       .  S
O1479      C1481   1.300       .  A
O1480      C1481   1.283       .  A
C1481      C2702   1.538       .  S
O1482     Zr1483   2.434       .  S
O1482      H1511   0.990       .  S
Zr1483     O1486   2.437       .  S
Zr1483     O1487   2.440       .  S
Zr1483     O1488   2.393       .  S
O1484      C1489   1.285       .  A
O1485      H1502   0.989       .  S
O1485      H1517   0.990       .  S
O1486      H1503   0.990       .  S
O1487      H1507   0.990       .  S
O1487      H1516   0.990       .  S
O1488      C1489   1.278       .  A
C1489      C2990   1.480       .  S
O1490      H1509   0.990       .  S
O1490      H1513   0.990       .  S
O1491      H1505   0.990       .  S
O1491      H1512   0.990       .  S
O1492      C1496   1.280       .  A
O1493      C1496   1.282       .  A
O1494      H1504   0.989       .  S
O1495      H1508   0.990       .  S
C1496      C2798   1.465       .  S
Zr1519     O1520   2.438       .  S
Zr1519     O1521   2.488       .  S
Zr1519     O1522   2.517       .  S
Zr1519     O1525   2.549       .  S
Zr1519     O1527   2.406       .  S
Zr1519     O1528   2.404       .  S
Zr1519     O1529   2.436       .  S
Zr1519     O1530   2.413       .  S
O1520      H1576   0.990       .  S
O1520      H1584   0.991       .  S
O1521      C1541   1.294       .  A
O1522      C1543   1.301       .  A
O1523     Zr1533   2.394       .  S
O1523      C1542   1.276       .  A
O1524     Zr1532   2.411       .  S
O1524      C1543   1.281       .  A
O1525      C1542   1.307       .  A
O1526     Zr1534   2.406       .  S
O1526      C1541   1.278       .  A
O1527     Zr1532   2.406       .  S
O1527     Zr1534   2.378       .  S
O1528     Zr1533   2.407       .  S
O1528     Zr1534   2.387       .  S
O1528      H1563   0.967       .  S
O1529     Zr1532   2.425       .  S
O1529     Zr1549   2.353       .  S
O1529      H1566   0.962       .  S
O1530     Zr1533   2.403       .  S
O1530     Zr1549   2.386       .  S
Zr1531     O1556   2.438       .  S
Zr1531     O1550   2.431       .  S
Zr1531     O1558   2.395       .  S
Zr1531     O1546   2.404       .  S
Zr1531     O1537   2.402       .  S
Zr1531     O1538   2.395       .  S
Zr1531     O1539   2.361       .  S
Zr1531     O1540   2.386       .  S
Zr1532     O1551   2.439       .  S
Zr1532     O1544   2.435       .  S
Zr1532     O1545   2.492       .  S
Zr1532     O1538   2.384       .  S
Zr1532     O1539   2.357       .  S
Zr1533     O1535   2.438       .  S
Zr1533     O1557   2.437       .  S
Zr1533     O1559   2.447       .  S
Zr1533     O1537   2.381       .  S
Zr1533     O1540   2.385       .  S
Zr1534     O1560   2.437       .  S
Zr1534     O1561   2.438       .  S
Zr1534     O1536   2.442       .  S
Zr1534     O1537   2.405       .  S
Zr1534     O1538   2.405       .  S
O1535      H1572   0.990       .  S
O1536      H1567   0.990       .  S
O1536      H1581   0.990       .  S
O1538      H1564   0.965       .  S
O1539     Zr1549   2.372       .  S
O1540     Zr1549   2.352       .  S
O1540      H1565   0.964       .  S
C1541      C3182   1.489       .  S
C1542      C2638   1.511       .  S
C1543      C3822   1.489       .  S
O1544      H1580   0.990       .  S
O1545      C1547   1.294       .  A
O1546      C1547   1.279       .  A
C1547      C2670   1.492       .  S
O1548     Zr1549   2.436       .  S
O1548      H1577   0.991       .  S
Zr1549     O1552   2.436       .  S
Zr1549     O1553   2.436       .  S
Zr1549     O1554   2.405       .  S
O1550      C1555   1.285       .  A
O1551      H1568   0.990       .  S
O1551      H1583   0.990       .  S
O1552      H1569   0.990       .  S
O1553      H1573   0.990       .  S
O1553      H1582   0.990       .  S
O1554      C1555   1.281       .  A
C1555      C2830   1.473       .  S
O1556      H1575   0.990       .  S
O1556      H1579   0.990       .  S
O1557      H1571   0.990       .  S
O1557      H1578   0.990       .  S
O1558      C1562   1.278       .  A
O1559      C1562   1.285       .  A
O1560      H1570   0.990       .  S
O1561      H1574   0.990       .  S
C1562      C3086   1.461       .  S
Zr1585     O1586   2.440       .  S
Zr1585     O1587   2.447       .  S
Zr1585     O1588   2.520       .  S
Zr1585     O1591   2.570       .  S
Zr1585     O1593   2.408       .  S
Zr1585     O1594   2.394       .  S
Zr1585     O1595   2.430       .  S
Zr1585     O1596   2.409       .  S
O1586      H1642   0.990       .  S
O1586      H1650   0.990       .  S
O1587      C1607   1.284       .  A
O1588      C1609   1.302       .  A
O1589     Zr1599   2.372       .  S
O1589      C1608   1.271       .  A
O1590     Zr1598   2.389       .  S
O1590      C1609   1.279       .  A
O1591      C1608   1.312       .  A
O1592     Zr1600   2.438       .  S
O1592      C1607   1.286       .  A
O1593     Zr1598   2.411       .  S
O1593     Zr1600   2.373       .  S
O1594     Zr1599   2.401       .  S
O1594     Zr1600   2.381       .  S
O1594      H1629   0.966       .  S
O1595     Zr1598   2.428       .  S
O1595     Zr1615   2.359       .  S
O1595      H1632   0.964       .  S
O1596     Zr1599   2.407       .  S
O1596     Zr1615   2.391       .  S
Zr1597     O1622   2.438       .  S
Zr1597     O1616   2.420       .  S
Zr1597     O1624   2.401       .  S
Zr1597     O1612   2.414       .  S
Zr1597     O1603   2.400       .  S
Zr1597     O1604   2.396       .  S
Zr1597     O1605   2.366       .  S
Zr1597     O1606   2.383       .  S
Zr1598     O1617   2.438       .  S
Zr1598     O1610   2.435       .  S
Zr1598     O1611   2.507       .  S
Zr1598     O1604   2.375       .  S
Zr1598     O1605   2.359       .  S
Zr1599     O1601   2.435       .  S
Zr1599     O1623   2.435       .  S
Zr1599     O1625   2.437       .  S
Zr1599     O1603   2.376       .  S
Zr1599     O1606   2.380       .  S
Zr1600     O1626   2.438       .  S
Zr1600     O1627   2.436       .  S
Zr1600     O1602   2.439       .  S
Zr1600     O1603   2.408       .  S
Zr1600     O1604   2.409       .  S
O1601      H1638   0.991       .  S
O1602      H1633   0.991       .  S
O1602      H1647   0.990       .  S
O1604      H1630   0.966       .  S
O1605     Zr1615   2.383       .  S
O1606     Zr1615   2.358       .  S
O1606      H1631   0.965       .  S
C1607      C4718   1.514       .  S
C1608      C2606   1.517       .  S
C1609      C4238   1.495       .  S
O1610      H1646   0.990       .  S
O1611      C1613   1.296       .  A
O1612      C1613   1.282       .  A
C1613      C2510   1.517       .  S
O1614     Zr1615   2.438       .  S
O1614      H1643   0.990       .  S
Zr1615     O1618   2.436       .  S
Zr1615     O1619   2.436       .  S
Zr1615     O1620   2.406       .  S
O1616      C1621   1.281       .  A
O1617      H1634   0.990       .  S
O1617      H1649   0.990       .  S
O1618      H1635   0.990       .  S
O1619      H1639   0.990       .  S
O1619      H1648   0.990       .  S
O1620      C1621   1.279       .  A
C1621      C2565   1.457       .  S
O1622      H1641   0.990       .  S
O1622      H1645   0.990       .  S
O1623      H1637   0.989       .  S
O1623      H1644   0.990       .  S
O1624      C1628   1.281       .  A
O1625      C1628   1.282       .  A
O1626      H1636   0.990       .  S
O1627      H1640   0.990       .  S
C1628      C2533   1.481       .  S
Zr1651     O1652   2.436       .  S
Zr1651     O1653   2.453       .  S
Zr1651     O1654   2.501       .  S
Zr1651     O1657   2.547       .  S
Zr1651     O1659   2.407       .  S
Zr1651     O1660   2.400       .  S
Zr1651     O1661   2.443       .  S
Zr1651     O1662   2.407       .  S
O1652      H1708   0.990       .  S
O1652      H1716   0.990       .  S
O1653      C1673   1.289       .  A
O1654      C1675   1.292       .  A
O1655     Zr1665   2.404       .  S
O1655      C1674   1.278       .  A
O1656     Zr1664   2.415       .  S
O1656      C1675   1.275       .  A
O1657      C1674   1.307       .  A
O1658     Zr1666   2.422       .  S
O1658      C1673   1.282       .  A
O1659     Zr1664   2.411       .  S
O1659     Zr1666   2.366       .  S
O1660     Zr1665   2.399       .  S
O1660     Zr1666   2.386       .  S
O1660      H1695   0.966       .  S
O1661     Zr1664   2.429       .  S
O1661     Zr1681   2.369       .  S
O1661      H1698   0.965       .  S
O1662     Zr1665   2.395       .  S
O1662     Zr1681   2.391       .  S
Zr1663     O1688   2.437       .  S
Zr1663     O1682   2.424       .  S
Zr1663     O1690   2.403       .  S
Zr1663     O1678   2.414       .  S
Zr1663     O1669   2.404       .  S
Zr1663     O1670   2.394       .  S
Zr1663     O1671   2.365       .  S
Zr1663     O1672   2.386       .  S
Zr1664     O1683   2.434       .  S
Zr1664     O1676   2.436       .  S
Zr1664     O1677   2.494       .  S
Zr1664     O1670   2.389       .  S
Zr1664     O1671   2.364       .  S
Zr1665     O1667   2.437       .  S
Zr1665     O1689   2.435       .  S
Zr1665     O1691   2.425       .  S
Zr1665     O1669   2.383       .  S
Zr1665     O1672   2.383       .  S
Zr1666     O1692   2.437       .  S
Zr1666     O1693   2.435       .  S
Zr1666     O1668   2.436       .  S
Zr1666     O1669   2.398       .  S
Zr1666     O1670   2.405       .  S
O1667      H1704   0.991       .  S
O1668      H1699   0.990       .  S
O1668      H1713   0.990       .  S
O1670      H1696   0.967       .  S
O1671     Zr1681   2.375       .  S
O1672     Zr1681   2.359       .  S
O1672      H1697   0.965       .  S
C1673      C3246   1.491       .  S
C1674      C2597   1.516       .  S
C1675      C3406   1.518       .  S
O1676      H1712   0.990       .  S
O1677      C1679   1.295       .  A
O1678      C1679   1.282       .  A
C1679      C2405   1.509       .  S
O1680     Zr1681   2.436       .  S
O1680      H1709   0.990       .  S
Zr1681     O1684   2.437       .  S
Zr1681     O1685   2.438       .  S
Zr1681     O1686   2.412       .  S
O1682      C1687   1.283       .  A
O1683      H1700   0.990       .  S
O1683      H1715   0.990       .  S
O1684      H1701   0.990       .  S
O1685      H1705   0.990       .  S
O1685      H1714   0.990       .  S
O1686      C1687   1.282       .  A
C1687      C2437   1.470       .  S
O1688      H1707   0.990       .  S
O1688      H1711   0.990       .  S
O1689      H1703   0.990       .  S
O1689      H1710   0.990       .  S
O1690      C1694   1.279       .  A
O1691      C1694   1.282       .  A
O1692      H1702   0.989       .  S
O1693      H1706   0.990       .  S
C1694      C2469   1.453       .  S
Zr1717     O1718   2.436   1_545  S
Zr1717     O1719   2.475       .  S
Zr1717     O1720   2.520       .  S
Zr1717     O1723   2.579       .  S
Zr1717     O1725   2.407       .  S
Zr1717     O1726   2.400       .  S
Zr1717     O1727   2.429       .  S
Zr1717     O1728   2.399       .  S
O1718      H1774   0.990       .  S
O1718      H1782   0.990       .  S
O1719      C1739   1.292       .  A
O1720      C1741   1.301       .  A
O1721     Zr1731   2.386       .  S
O1721      C1740   1.275       .  A
O1722     Zr1730   2.382       .  S
O1722      C1741   1.278       .  A
O1723      C1740   1.314       .  A
O1724     Zr1732   2.412       .  S
O1724      C1739   1.279       .  A
O1725     Zr1730   2.406       .  S
O1725     Zr1732   2.373       .  S
O1726     Zr1731   2.397       .  S
O1726     Zr1732   2.388       .  S
O1726      H1761   0.966       .  S
O1727     Zr1730   2.419       .  S
O1727     Zr1747   2.375       .  S
O1727      H1764   0.965       .  S
O1728     Zr1731   2.401       .  S
O1728     Zr1747   2.385       .  S
Zr1729     O1754   2.439       .  S
Zr1729     O1748   2.415       .  S
Zr1729     O1756   2.412       .  S
Zr1729     O1744   2.428       .  S
Zr1729     O1735   2.407       .  S
Zr1729     O1736   2.392       .  S
Zr1729     O1737   2.373       .  S
Zr1729     O1738   2.385       .  S
Zr1730     O1749   2.438       .  S
Zr1730     O1742   2.435       .  S
Zr1730     O1743   2.478       .  S
Zr1730     O1736   2.381       .  S
Zr1730     O1737   2.358       .  S
Zr1731     O1733   2.439       .  S
Zr1731     O1755   2.437       .  S
Zr1731     O1757   2.428       .  S
Zr1731     O1735   2.376       .  S
Zr1731     O1738   2.392       .  S
Zr1732     O1758   2.438       .  S
Zr1732     O1759   2.438       .  S
Zr1732     O1734   2.441       .  S
Zr1732     O1735   2.406       .  S
Zr1732     O1736   2.402       .  S
O1733      H1770   0.990       .  S
O1734      H1765   0.990       .  S
O1734      H1779   0.990       .  S
O1736      H1762   0.965       .  S
O1737     Zr1747   2.377       .  S
O1738     Zr1747   2.360       .  S
O1738      H1763   0.964       .  S
C1739      C4462   1.498       .  S
C1740      C2382   1.525   1_545  S
C1741      C5006   1.502       .  S
O1742      H1778   0.990       .  S
O1743      C1745   1.292       .  A
O1744      C1745   1.283       .  A
C1745      C2501   1.495       .  S
O1746     Zr1747   2.437       .  S
O1746      H1775   0.990       .  S
Zr1747     O1750   2.437       .  S
Zr1747     O1751   2.438       .  S
Zr1747     O1752   2.408       .  S
O1748      C1753   1.279       .  A
O1749      H1766   0.990       .  S
O1749      H1781   0.990       .  S
O1750      H1767   0.990       .  S
O1751      H1771   0.990       .  S
O1751      H1780   0.990       .  S
O1752      C1753   1.280       .  A
C1753      C2341   1.455   1_655  S
O1754      H1773   0.991       .  S
O1754      H1777   0.990       .  S
O1755      H1769   0.990       .  S
O1755      H1776   0.990       .  S
O1756      C1760   1.280       .  A
O1757      C1760   1.281       .  A
O1758      H1768   0.990       .  S
O1759      H1772   0.990       .  S
C1760      C2318   1.455       .  S
Zr1783     O1784   2.437       .  S
Zr1783     O1785   2.469       .  S
Zr1783     O1786   2.520       .  S
Zr1783     O1789   2.559       .  S
Zr1783     O1791   2.407       .  S
Zr1783     O1792   2.407       .  S
Zr1783     O1793   2.448       .  S
Zr1783     O1794   2.410       .  S
O1784      H1840   0.990       .  S
O1784      H1848   0.990       .  S
O1785      C1805   1.290       .  A
O1786      C1807   1.295       .  A
O1787     Zr1797   2.400       .  S
O1787      C1806   1.277       .  A
O1788     Zr1796   2.406       .  S
O1788      C1807   1.272       .  A
O1789      C1806   1.310       .  A
O1790     Zr1798   2.417       .  S
O1790      C1805   1.281       .  A
O1791     Zr1796   2.411       .  S
O1791     Zr1798   2.367       .  S
O1792     Zr1797   2.409       .  S
O1792     Zr1798   2.387       .  S
O1792      H1827   0.968       .  S
O1793     Zr1796   2.434       .  S
O1793     Zr1813   2.362       .  S
O1793      H1830   0.963       .  S
O1794     Zr1797   2.410       .  S
O1794     Zr1813   2.386       .  S
Zr1795     O1820   2.440       .  S
Zr1795     O1814   2.419       .  S
Zr1795     O1822   2.401       .  S
Zr1795     O1810   2.415       .  S
Zr1795     O1801   2.400       .  S
Zr1795     O1802   2.390       .  S
Zr1795     O1803   2.373       .  S
Zr1795     O1804   2.381       .  S
Zr1796     O1815   2.438       .  S
Zr1796     O1808   2.435       .  S
Zr1796     O1809   2.491       .  S
Zr1796     O1802   2.378       .  S
Zr1796     O1803   2.370       .  S
Zr1797     O1799   2.437       .  S
Zr1797     O1821   2.435       .  S
Zr1797     O1823   2.453       .  S
Zr1797     O1801   2.379       .  S
Zr1797     O1804   2.383       .  S
Zr1798     O1824   2.435       .  S
Zr1798     O1825   2.435       .  S
Zr1798     O1800   2.437       .  S
Zr1798     O1801   2.401       .  S
Zr1798     O1802   2.397       .  S
O1799      H1836   0.991       .  S
O1800      H1831   0.990       .  S
O1800      H1845   0.990       .  S
O1802      H1828   0.969       .  S
O1803     Zr1813   2.387       .  S
O1804     Zr1813   2.359       .  S
O1804      H1829   0.963       .  S
C1805      C3566   1.493       .  S
C1806      C2373   1.519       .  S
C1807      C3973   1.524       .  S
O1808      H1844   0.990       .  S
O1809      C1811   1.294       .  A
O1810      C1811   1.281       .  A
C1811      C2414   1.494       .  S
O1812     Zr1813   2.435       .  S
O1812      H1841   0.990       .  S
Zr1813     O1816   2.436       .  S
Zr1813     O1817   2.441       .  S
Zr1813     O1818   2.400       .  S
O1814      C1819   1.283       .  A
O1815      H1832   0.989       .  S
O1815      H1847   0.990       .  S
O1816      H1833   0.990       .  S
O1817      H1837   0.989       .  S
O1817      H1846   0.989       .  S
O1818      C1819   1.276       .  A
C1819      C2245   1.474       .  S
O1820      H1839   0.990       .  S
O1820      H1843   0.990       .  S
O1821      H1835   0.990       .  S
O1821      H1842   0.990       .  S
O1822      C1826   1.277       .  A
O1823      C1826   1.287       .  A
O1824      H1834   0.990       .  S
O1825      H1838   0.990       .  S
C1826      C2277   1.474       .  S
Zr1849     O1850   2.439   1_565  S
Zr1849     O1851   2.487       .  S
Zr1849     O1852   2.565   1_565  S
Zr1849     O1855   2.526   1_565  S
Zr1849     O1857   2.399       .  S
Zr1849     O1858   2.421       .  S
Zr1849     O1859   2.422       .  S
Zr1849     O1860   2.406       .  S
O1850      H1906   0.990       .  S
O1850      H1914   0.990       .  S
O1851      C1871   1.292       .  A
O1852      C1873   1.309       .  A
O1853     Zr1863   2.398       .  S
O1853      C1872   1.279       .  A
O1854     Zr1862   2.398       .  S
O1854      C1873   1.276   1_565  A
O1855      C1872   1.303   1_545  A
O1856     Zr1864   2.414       .  S
O1856      C1871   1.281       .  A
O1857     Zr1862   2.407       .  S
O1857     Zr1864   2.391       .  S
O1858     Zr1863   2.401       .  S
O1858     Zr1864   2.381       .  S
O1858      H1893   0.966       .  S
O1859     Zr1862   2.406       .  S
O1859     Zr1879   2.395       .  S
O1859      H1896   0.965       .  S
O1860     Zr1863   2.403       .  S
O1860     Zr1879   2.361       .  S
Zr1861     O1886   2.433       .  S
Zr1861     O1880   2.428       .  S
Zr1861     O1888   2.417       .  S
Zr1861     O1876   2.410       .  S
Zr1861     O1867   2.401       .  S
Zr1861     O1868   2.403       .  S
Zr1861     O1869   2.372       .  S
Zr1861     O1870   2.377       .  S
Zr1862     O1881   2.442       .  S
Zr1862     O1874   2.435       .  S
Zr1862     O1875   2.439       .  S
Zr1862     O1868   2.384       .  S
Zr1862     O1869   2.369       .  S
Zr1863     O1865   2.436       .  S
Zr1863     O1887   2.434       .  S
Zr1863     O1889   2.484       .  S
Zr1863     O1867   2.374       .  S
Zr1863     O1870   2.367       .  S
Zr1864     O1890   2.437       .  S
Zr1864     O1891   2.436       .  S
Zr1864     O1866   2.437       .  S
Zr1864     O1867   2.403       .  S
Zr1864     O1868   2.408       .  S
O1865      H1902   0.991       .  S
O1866      H1897   0.991       .  S
O1866      H1911   0.990       .  S
O1868      H1894   0.967       .  S
O1869     Zr1879   2.362       .  S
O1870     Zr1879   2.379       .  S
O1870      H1895   0.966       .  S
C1871      C5038   1.500       .  S
C1872      C4430   1.496   1_565  S
C1873      C2213   1.517       .  S
O1874      H1910   0.990       .  S
O1875      C1877   1.284       .  A
O1876      C1877   1.281       .  A
C1877      C2446   1.469       .  S
O1878     Zr1879   2.437       .  S
O1878      H1907   0.991   1_565  S
Zr1879     O1882   2.435       .  S
Zr1879     O1883   2.437       .  S
Zr1879     O1884   2.410       .  S
O1880      C1885   1.283       .  A
O1881      H1898   0.990       .  S
O1881      H1913   0.990       .  S
O1882      H1899   0.990       .  S
O1883      H1903   0.990       .  S
O1883      H1912   0.990       .  S
O1884      C1885   1.281       .  A
C1885      C2286   1.458       .  S
O1886      H1905   0.989       .  S
O1886      H1909   0.988       .  S
O1887      H1901   0.990       .  S
O1887      H1908   0.990       .  S
O1888      C1892   1.281       .  A
O1889      C1892   1.293       .  A
O1890      H1900   0.990       .  S
O1891      H1904   0.990       .  S
C1892      C2181   1.507       .  S
Zr1915     O1916   2.437       .  S
Zr1915     O1917   2.471       .  S
Zr1915     O1918   2.571       .  S
Zr1915     O1921   2.522       .  S
Zr1915     O1923   2.393       .  S
Zr1915     O1924   2.422       .  S
Zr1915     O1925   2.409       .  S
Zr1915     O1926   2.407       .  S
O1916      H1972   0.990       .  S
O1916      H1980   0.990       .  S
O1917      C1937   1.290       .  A
O1918      C1939   1.311       .  A
O1919     Zr1929   2.416       .  S
O1919      C1938   1.282       .  A
O1920     Zr1928   2.382       .  S
O1920      C1939   1.274       .  A
O1921      C1938   1.303       .  A
O1922     Zr1930   2.431       .  S
O1922      C1937   1.285       .  A
O1923     Zr1928   2.405       .  S
O1923     Zr1930   2.386       .  S
O1924     Zr1929   2.407       .  S
O1924     Zr1930   2.382       .  S
O1924      H1959   0.965       .  S
O1925     Zr1928   2.404       .  S
O1925     Zr1945   2.392       .  S
O1925      H1962   0.965       .  S
O1926     Zr1929   2.413       .  S
O1926     Zr1945   2.365       .  S
Zr1927     O1952   2.435       .  S
Zr1927     O1946   2.427       .  S
Zr1927     O1954   2.420       .  S
Zr1927     O1942   2.403       .  S
Zr1927     O1933   2.404       .  S
Zr1927     O1934   2.403       .  S
Zr1927     O1935   2.376       .  S
Zr1927     O1936   2.372       .  S
Zr1928     O1947   2.438       .  S
Zr1928     O1940   2.435       .  S
Zr1928     O1941   2.436       .  S
Zr1928     O1934   2.381       .  S
Zr1928     O1935   2.380       .  S
Zr1929     O1931   2.436       .  S
Zr1929     O1953   2.435       .  S
Zr1929     O1955   2.509       .  S
Zr1929     O1933   2.379       .  S
Zr1929     O1936   2.366       .  S
Zr1930     O1956   2.435       .  S
Zr1930     O1957   2.438       .  S
Zr1930     O1932   2.438       .  S
Zr1930     O1933   2.411       .  S
Zr1930     O1934   2.402       .  S
O1931      H1968   0.990       .  S
O1932      H1963   0.991       .  S
O1932      H1977   0.990       .  S
O1934      H1960   0.966       .  S
O1935     Zr1945   2.370       .  S
O1936     Zr1945   2.383       .  S
O1936      H1961   0.965       .  S
C1937      C3429   1.507       .  S
C1938      C3205   1.494       .  S
C1939      C2222   1.513       .  S
O1940      H1976   0.990       .  S
O1941      C1943   1.283       .  A
O1942      C1943   1.279       .  A
C1943      C2350   1.463       .  S
O1944     Zr1945   2.435       .  S
O1944      H1973   0.990       .  S
Zr1945     O1948   2.435       .  S
Zr1945     O1949   2.436       .  S
Zr1945     O1950   2.399       .  S
O1946      C1951   1.283       .  A
O1947      H1964   0.990       .  S
O1947      H1979   0.990       .  S
O1948      H1965   0.990       .  S
O1949      H1969   0.990       .  S
O1949      H1978   0.990       .  S
O1950      C1951   1.279       .  A
C1951      C2542   1.456       .  S
O1952      H1971   0.989       .  S
O1952      H1975   0.990       .  S
O1953      H1967   0.990       .  S
O1953      H1974   0.990       .  S
O1954      C1958   1.282       .  A
O1955      C1958   1.298       .  A
O1956      H1966   0.990       .  S
O1957      H1970   0.990       .  S
C1958      C2149   1.513       .  S
Zr1981     O1982   2.435       .  S
Zr1981     O1983   2.454       .  S
Zr1981     O1984   2.566       .  S
Zr1981     O1987   2.528       .  S
Zr1981     O1989   2.377       .  S
Zr1981     O1990   2.421       .  S
Zr1981     O1991   2.412       .  S
Zr1981     O1992   2.395       .  S
O1982      H2038   0.990       .  S
O1982      H2046   0.990       .  S
O1983      C2003   1.286       .  A
O1984      C2005   1.311       .  A
O1985     Zr1995   2.428       .  S
O1985      C2004   1.284       .  A
O1986     Zr1994   2.378       .  S
O1986      C2005   1.272       .  A
O1987      C2004   1.304       .  A
O1988     Zr1996   2.459       .  S
O1988      C2003   1.290       .  A
O1989     Zr1994   2.396       .  S
O1989     Zr1996   2.374       .  S
O1990     Zr1995   2.391       .  S
O1990     Zr1996   2.380       .  S
O1990      H2025   0.965       .  S
O1991     Zr1994   2.398       .  S
O1991     Zr2011   2.410       .  S
O1991      H2028   0.966       .  S
O1992     Zr1995   2.403       .  S
O1992     Zr2011   2.353       .  S
Zr1993     O2018   2.434       .  S
Zr1993     O2012   2.450       .  S
Zr1993     O2020   2.412       .  S
Zr1993     O2008   2.428       .  S
Zr1993     O1999   2.415       .  S
Zr1993     O2000   2.407       .  S
Zr1993     O2001   2.373       .  S
Zr1993     O2002   2.374       .  S
Zr1994     O2013   2.439       .  S
Zr1994     O2006   2.436       .  S
Zr1994     O2007   2.411       .  S
Zr1994     O2000   2.382       .  S
Zr1994     O2001   2.375       .  S
Zr1995     O1997   2.435       .  S
Zr1995     O2019   2.435       .  S
Zr1995     O2021   2.486       .  S
Zr1995     O1999   2.380       .  S
Zr1995     O2002   2.359       .  S
Zr1996     O2022   2.436       .  S
Zr1996     O2023   2.435       .  S
Zr1996     O1998   2.442       .  S
Zr1996     O1999   2.420       .  S
Zr1996     O2000   2.419       .  S
O1997      H2034   0.990       .  S
O1998      H2029   0.990       .  S
O1998      H2043   0.990       .  S
O2000      H2026   0.966       .  S
O2001     Zr2011   2.362       .  S
O2002     Zr2011   2.389       .  S
O2002      H2027   0.965       .  S
C2003      C4261   1.515       .  S
C2004      C4677   1.503       .  S
C2005      C2117   1.513       .  S
O2006      H2042   0.990       .  S
O2007      C2009   1.281       .  A
O2008      C2009   1.285       .  A
C2009      C2254   1.478       .  S
O2010     Zr2011   2.438       .  S
O2010      H2039   0.990       .  S
Zr2011     O2014   2.437       .  S
Zr2011     O2015   2.439       .  S
Zr2011     O2016   2.407       .  S
O2012      C2017   1.288       .  A
O2013      H2030   0.990       .  S
O2013      H2045   0.989       .  S
O2014      H2031   0.990       .  S
O2015      H2035   0.990       .  S
O2015      H2044   0.990       .  S
O2016      C2017   1.282       .  A
C2017      C2478   1.486       .  S
O2018      H2037   0.990       .  S
O2018      H2041   0.989       .  S
O2019      H2033   0.990       .  S
O2019      H2040   0.990       .  S
O2020      C2024   1.281       .  A
O2021      C2024   1.294       .  A
O2022      H2032   0.990       .  S
O2023      H2036   0.990       .  S
C2024      C2190   1.502       .  S
Zr2047     O2048   2.437       .  S
Zr2047     O2049   2.463       .  S
Zr2047     O2050   2.568       .  S
Zr2047     O2053   2.517       .  S
Zr2047     O2055   2.379       .  S
Zr2047     O2056   2.420       .  S
Zr2047     O2057   2.413       .  S
Zr2047     O2058   2.403       .  S
O2048      H2104   0.990       .  S
O2048      H2112   0.990       .  S
O2049      C2069   1.291       .  A
O2050      C2071   1.310       .  A
O2051     Zr2061   2.414       .  S
O2051      C2070   1.282       .  A
O2052     Zr2060   2.382       .  S
O2052      C2071   1.274       .  A
O2053      C2070   1.303       .  A
O2054     Zr2062   2.440       .  S
O2054      C2069   1.284       .  A
O2055     Zr2060   2.392       .  S
O2055     Zr2062   2.378       .  S
O2056     Zr2061   2.395       .  S
O2056     Zr2062   2.382       .  S
O2056      H2091   0.964       .  S
O2057     Zr2060   2.394       .  S
O2057     Zr2077   2.410       .  S
O2057      H2094   0.967       .  S
O2058     Zr2061   2.404       .  S
O2058     Zr2077   2.359       .  S
Zr2059     O2084   2.436       .  S
Zr2059     O2078   2.429       .  S
Zr2059     O2086   2.428       .  S
Zr2059     O2074   2.432       .  S
Zr2059     O2065   2.408       .  S
Zr2059     O2066   2.406       .  S
Zr2059     O2067   2.380       .  S
Zr2059     O2068   2.375       .  S
Zr2060     O2079   2.437       .  S
Zr2060     O2072   2.436       .  S
Zr2060     O2073   2.408       .  S
Zr2060     O2066   2.384       .  S
Zr2060     O2067   2.379       .  S
Zr2061     O2063   2.437       .  S
Zr2061     O2085   2.437       .  S
Zr2061     O2087   2.498       .  S
Zr2061     O2065   2.384       .  S
Zr2061     O2068   2.353       .  S
Zr2062     O2088   2.435       .  S
Zr2062     O2089   2.437       .  S
Zr2062     O2064   2.439       .  S
Zr2062     O2065   2.410       .  S
Zr2062     O2066   2.409       .  S
O2063      H2100   0.990       .  S
O2064      H2095   0.990       .  S
O2064      H2109   0.990       .  S
O2066      H2092   0.967       .  S
O2067     Zr2077   2.363       .  S
O2068     Zr2077   2.387       .  S
O2068      H2093   0.965       .  S
C2069      C4014   1.505       .  S
C2070      C3525   1.494       .  S
C2071      C2126   1.517       .  S
O2072      H2108   0.990       .  S
O2073      C2075   1.280       .  A
O2074      C2075   1.286       .  A
C2075      C2574   1.476       .  S
O2076     Zr2077   2.435       .  S
O2076      H2105   0.991       .  S
Zr2077     O2080   2.435       .  S
Zr2077     O2081   2.435       .  S
Zr2077     O2082   2.408       .  S
O2078      C2083   1.281       .  A
O2079      H2096   0.990       .  S
O2079      H2111   0.990       .  S
O2080      H2097   0.990       .  S
O2081      H2101   0.990       .  S
O2081      H2110   0.990       .  S
O2082      C2083   1.282       .  A
C2083      C2309   1.483       .  S
O2084      H2103   0.989       .  S
O2084      H2107   0.990       .  S
O2085      H2099   0.990       .  S
O2085      H2106   0.990       .  S
O2086      C2090   1.285       .  A
O2087      C2090   1.296       .  A
O2088      H2098   0.990       .  S
O2089      H2102   0.990       .  S
C2090      C2158   1.510       .  S
C2113      C2114   1.409       .  A
C2113      C2118   1.422       .  A
C2113      H2123   1.083       .  S
C2114      C2119   1.533       .  S
C2114      C2115   1.427       .  A
C2115      C2116   1.427       .  A
C2115      C2120   1.518       .  S
C2116      C2117   1.411       .  A
C2116      H2121   1.083       .  S
C2117      C2118   1.424       .  A
C2118      C2122   1.514       .  S
C2119      C2124   1.424       .  A
C2119      C2128   1.413       .  A
C2120      F2136   1.382       .  S
C2120      F2137   1.383       .  S
C2120      F2138   1.384       .  S
C2122      F2133   1.384       .  S
C2122      F2134   1.382       .  S
C2122      F2135   1.383       .  S
C2124      C2125   1.423       .  A
C2124      C2129   1.519       .  S
C2125      C2126   1.412       .  A
C2125      H2130   1.083       .  S
C2126      C2127   1.421       .  A
C2127      C2128   1.428       .  A
C2127      C2131   1.514       .  S
C2128      H2132   1.082       .  S
C2129      F2142   1.384       .  S
C2129      F2143   1.382       .  S
C2129      F2144   1.383       .  S
C2131      F2139   1.385       .  S
C2131      F2140   1.383       .  S
C2131      F2141   1.383       .  S
C2145      C2146   1.402       .  A
C2145      C2150   1.411       .  A
C2145      H2155   1.083       .  S
C2146      C2151   1.519       .  S
C2146      C2147   1.429       .  A
C2147      C2148   1.425       .  A
C2147      C2152   1.519       .  S
C2148      C2149   1.409       .  A
C2148      H2153   1.083       .  S
C2149      C2150   1.425       .  A
C2150      C2154   1.516       .  S
C2151      C2156   1.428   1_455  A
C2151      C2160   1.402       .  A
C2152      F2168   1.380       .  S
C2152      F2169   1.383       .  S
C2152      F2170   1.385       .  S
C2154      F2165   1.382       .  S
C2154      F2166   1.385       .  S
C2154      F2167   1.382       .  S
C2156      C2157   1.424       .  A
C2156      C2161   1.518       .  S
C2157      C2158   1.409       .  A
C2157      H2162   1.083       .  S
C2158      C2159   1.423       .  A
C2159      C2160   1.410   1_655  A
C2159      C2163   1.516       .  S
C2160      H2164   1.080       .  S
C2161      F2174   1.385       .  S
C2161      F2175   1.382       .  S
C2161      F2176   1.384   1_655  S
C2163      F2171   1.384   1_655  S
C2163      F2172   1.382       .  S
C2163      F2173   1.382       .  S
C2177      C2178   1.398       .  A
C2177      C2182   1.408       .  A
C2177      H2187   1.083       .  S
C2178      C2183   1.500       .  S
C2178      C2179   1.420       .  A
C2179      C2180   1.416       .  A
C2179      C2184   1.517       .  S
C2180      C2181   1.410       .  A
C2180      H2185   1.083       .  S
C2181      C2182   1.428       .  A
C2182      C2186   1.516       .  S
C2183      C2188   1.421       .  A
C2183      C2192   1.400       .  A
C2184      F2200   1.382       .  S
C2184      F2201   1.383       .  S
C2184      F2202   1.385       .  S
C2186      F2197   1.383       .  S
C2186      F2198   1.385       .  S
C2186      F2199   1.381       .  S
C2188      C2189   1.416       .  A
C2188      C2193   1.518       .  S
C2189      C2190   1.408       .  A
C2189      H2194   1.083       .  S
C2190      C2191   1.425       .  A
C2191      C2192   1.407       .  A
C2191      C2195   1.515       .  S
C2192      H2196   1.084       .  S
C2193      F2206   1.385       .  S
C2193      F2207   1.382       .  S
C2193      F2208   1.383       .  S
C2195      F2203   1.385       .  S
C2195      F2204   1.382       .  S
C2195      F2205   1.382       .  S
C2209      C2210   1.411       .  A
C2209      C2214   1.426       .  A
C2209      H2219   1.083       .  S
C2210      C2215   1.532       .  S
C2210      C2211   1.423       .  A
C2211      C2212   1.427       .  A
C2211      C2216   1.516       .  S
C2212      C2213   1.411       .  A
C2212      H2217   1.083       .  S
C2213      C2214   1.424       .  A
C2214      C2218   1.517       .  S
C2215      C2220   1.428       .  A
C2215      C2224   1.413       .  A
C2216      F2232   1.382       .  S
C2216      F2233   1.383       .  S
C2216      F2234   1.385       .  S
C2218      F2229   1.383       .  S
C2218      F2230   1.385       .  S
C2218      F2231   1.383       .  S
C2220      C2221   1.421       .  A
C2220      C2225   1.517       .  S
C2221      C2222   1.407       .  A
C2221      H2226   1.085       .  S
C2222      C2223   1.424       .  A
C2223      C2224   1.428       .  A
C2223      C2227   1.516       .  S
C2224      H2228   1.082       .  S
C2225      F2238   1.384       .  S
C2225      F2239   1.383       .  S
C2225      F2240   1.381       .  S
C2227      F2235   1.382       .  S
C2227      F2236   1.383       .  S
C2227      F2237   1.385       .  S
C2241      C2242   1.400       .  A
C2241      C2246   1.397       .  A
C2241      H2251   1.083       .  S
C2242      C2247   1.473       .  S
C2242      C2243   1.409       .  A
C2243      C2244   1.404       .  A
C2243      C2248   1.515       .  S
C2244      C2245   1.407       .  A
C2244      H2249   1.083       .  S
C2245      C2246   1.421       .  A
C2246      C2250   1.523       .  S
C2247      C2252   1.413       .  A
C2247      C2256   1.401       .  A
C2248      F2264   1.380       .  S
C2248      F2265   1.383       .  S
C2248      F2266   1.380       .  S
C2250      F2261   1.383       .  S
C2250      F2262   1.384       .  S
C2250      F2263   1.381       .  S
C2252      C2253   1.398       .  A
C2252      C2257   1.515       .  S
C2253      C2254   1.405       .  A
C2253      H2258   1.084       .  S
C2254      C2255   1.418       .  A
C2255      C2256   1.401       .  A
C2255      C2259   1.515       .  S
C2256      H2260   1.084       .  S
C2257      F2270   1.384       .  S
C2257      F2271   1.383       .  S
C2257      F2272   1.383       .  S
C2259      F2267   1.381       .  S
C2259      F2268   1.383       .  S
C2259      F2269   1.384       .  S
C2273      C2274   1.395       .  A
C2273      C2278   1.399       .  A
C2273      H2283   1.084       .  S
C2274      C2279   1.474       .  S
C2274      C2275   1.417       .  A
C2275      C2276   1.406       .  A
C2275      C2280   1.519       .  S
C2276      C2277   1.401       .  A
C2276      H2281   1.083       .  S
C2277      C2278   1.422       .  A
C2278      C2282   1.517       .  S
C2279      C2284   1.417       .  A
C2279      C2288   1.401       .  A
C2280      F2296   1.383       .  S
C2280      F2297   1.383       .  S
C2280      F2298   1.384       .  S
C2282      F2293   1.382       .  S
C2282      F2294   1.384       .  S
C2282      F2295   1.381       .  S
C2284      C2285   1.400       .  A
C2284      C2289   1.519       .  S
C2285      C2286   1.396       .  A
C2285      H2290   1.084       .  S
C2286      C2287   1.412       .  A
C2287      C2288   1.405       .  A
C2287      C2291   1.515       .  S
C2288      H2292   1.083       .  S
C2289      F2302   1.382       .  S
C2289      F2303   1.382       .  S
C2289      F2304   1.382       .  S
C2291      F2299   1.384       .  S
C2291      F2300   1.382       .  S
C2291      F2301   1.383       .  S
C2305      C2306   1.403       .  A
C2305      C2310   1.406       .  A
C2305      H2315   1.083       .  S
C2306      C2311   1.466       .  S
C2306      C2307   1.408       .  A
C2307      C2308   1.391       .  A
C2307      C2312   1.515       .  S
C2308      C2309   1.407       .  A
C2308      H2313   1.084       .  S
C2309      C2310   1.421       .  A
C2310      C2314   1.518       .  S
C2311      C2316   1.407       .  A
C2311      C2320   1.402       .  A
C2312      F2328   1.383       .  S
C2312      F2329   1.382       .  S
C2312      F2330   1.383       .  S
C2314      F2325   1.385       .  S
C2314      F2326   1.381       .  S
C2314      F2327   1.384       .  S
C2316      C2317   1.406       .  A
C2316      C2321   1.517       .  S
C2317      C2318   1.408       .  A
C2317      H2322   1.084       .  S
C2318      C2319   1.412       .  A
C2319      C2320   1.392       .  A
C2319      C2323   1.521       .  S
C2320      H2324   1.086       .  S
C2321      F2334   1.384       .  S
C2321      F2335   1.382       .  S
C2321      F2336   1.383       .  S
C2323      F2331   1.383       .  S
C2323      F2332   1.381       .  S
C2323      F2333   1.383       .  S
C2337      C2338   1.404       .  A
C2337      C2342   1.401       .  A
C2337      H2347   1.084       .  S
C2338      C2343   1.468       .  S
C2338      C2339   1.410       .  A
C2339      C2340   1.399       .  A
C2339      C2344   1.517       .  S
C2340      C2341   1.401       .  A
C2340      H2345   1.084       .  S
C2341      C2342   1.410       .  A
C2342      C2346   1.518   1_455  S
C2343      C2348   1.417       .  A
C2343      C2352   1.395       .  A
C2344      F2360   1.383       .  S
C2344      F2361   1.382       .  S
C2344      F2362   1.384       .  S
C2346      F2357   1.383       .  S
C2346      F2358   1.384       .  S
C2346      F2359   1.383       .  S
C2348      C2349   1.404       .  A
C2348      C2353   1.521       .  S
C2349      C2350   1.400       .  A
C2349      H2354   1.084       .  S
C2350      C2351   1.414       .  A
C2351      C2352   1.398       .  A
C2351      C2355   1.512       .  S
C2352      H2356   1.084       .  S
C2353      F2366   1.385       .  S
C2353      F2367   1.382       .  S
C2353      F2368   1.382       .  S
C2355      F2363   1.381       .  S
C2355      F2364   1.383       .  S
C2355      F2365   1.385       .  S
C2369      C2370   1.411       .  A
C2369      C2374   1.426       .  A
C2369      H2379   1.083       .  S
C2370      C2375   1.535       .  S
C2370      C2371   1.425       .  A
C2371      C2372   1.429       .  A
C2371      C2376   1.517       .  S
C2372      C2373   1.412       .  A
C2372      H2377   1.083       .  S
C2373      C2374   1.422       .  A
C2374      C2378   1.517       .  S
C2375      C2380   1.422       .  A
C2375      C2384   1.415       .  A
C2376      F2392   1.382       .  S
C2376      F2393   1.382       .  S
C2376      F2394   1.385       .  S
C2378      F2389   1.384   1_565  S
C2378      F2390   1.383       .  S
C2378      F2391   1.383       .  S
C2380      C2381   1.424       .  A
C2380      C2385   1.520       .  S
C2381      C2382   1.416       .  A
C2381      H2386   1.083   1_565  S
C2382      C2383   1.421       .  A
C2383      C2384   1.432       .  A
C2383      C2387   1.513       .  S
C2384      H2388   1.082       .  S
C2385      F2398   1.385       .  S
C2385      F2399   1.382       .  S
C2385      F2400   1.382       .  S
C2387      F2395   1.383   1_565  S
C2387      F2396   1.383       .  S
C2387      F2397   1.384       .  S
C2401      C2402   1.409       .  A
C2401      C2406   1.423       .  A
C2401      H2411   1.082       .  S
C2402      C2407   1.507       .  S
C2402      C2403   1.418       .  A
C2403      C2404   1.410       .  A
C2403      C2408   1.521       .  S
C2404      C2405   1.410       .  A
C2404      H2409   1.083       .  S
C2405      C2406   1.422       .  A
C2406      C2410   1.515       .  S
C2407      C2412   1.418       .  A
C2407      C2416   1.406       .  A
C2408      F2424   1.382       .  S
C2408      F2425   1.383       .  S
C2408      F2426   1.385       .  S
C2410      F2421   1.384       .  S
C2410      F2422   1.382       .  S
C2410      F2423   1.383       .  S
C2412      C2413   1.417       .  A
C2412      C2417   1.517       .  S
C2413      C2414   1.406       .  A
C2413      H2418   1.083       .  S
C2414      C2415   1.418       .  A
C2415      C2416   1.416       .  A
C2415      C2419   1.516       .  S
C2416      H2420   1.083       .  S
C2417      F2430   1.384       .  S
C2417      F2431   1.382       .  S
C2417      F2432   1.383       .  S
C2419      F2427   1.384       .  S
C2419      F2428   1.384       .  S
C2419      F2429   1.382       .  S
C2433      C2434   1.397       .  A
C2433      C2438   1.398       .  A
C2433      H2443   1.084       .  S
C2434      C2439   1.470       .  S
C2434      C2435   1.417       .  A
C2435      C2436   1.400       .  A
C2435      C2440   1.518       .  S
C2436      C2437   1.401       .  A
C2436      H2441   1.085       .  S
C2437      C2438   1.419       .  A
C2438      C2442   1.517       .  S
C2439      C2444   1.409       .  A
C2439      C2448   1.400       .  A
C2440      F2456   1.383       .  S
C2440      F2457   1.383       .  S
C2440      F2458   1.383       .  S
C2442      F2453   1.383       .  S
C2442      F2454   1.383       .  S
C2442      F2455   1.383       .  S
C2444      C2445   1.408       .  A
C2444      C2449   1.516       .  S
C2445      C2446   1.407       .  A
C2445      H2450   1.083       .  S
C2446      C2447   1.413       .  A
C2447      C2448   1.397       .  A
C2447      C2451   1.516       .  S
C2448      H2452   1.084       .  S
C2449      F2462   1.384       .  S
C2449      F2463   1.382       .  S
C2449      F2464   1.383       .  S
C2451      F2459   1.385       .  S
C2451      F2460   1.383       .  S
C2451      F2461   1.380       .  S
C2465      C2466   1.404       .  A
C2465      C2470   1.397       .  A
C2465      H2475   1.084       .  S
C2466      C2471   1.466       .  S
C2466      C2467   1.410       .  A
C2467      C2468   1.402       .  A
C2467      C2472   1.516       .  S
C2468      C2469   1.402       .  A
C2468      H2473   1.084       .  S
C2469      C2470   1.409       .  A
C2470      C2474   1.519       .  S
C2471      C2476   1.413       .  A
C2471      C2480   1.402       .  A
C2472      F2488   1.382       .  S
C2472      F2489   1.383       .  S
C2472      F2490   1.384       .  S
C2474      F2485   1.384       .  S
C2474      F2486   1.381       .  S
C2474      F2487   1.384       .  S
C2476      C2477   1.395       .  A
C2476      C2481   1.518       .  S
C2477      C2478   1.407       .  A
C2477      H2482   1.084       .  S
C2478      C2479   1.412       .  A
C2479      C2480   1.400       .  A
C2479      C2483   1.511       .  S
C2480      H2484   1.084       .  S
C2481      F2494   1.383       .  S
C2481      F2495   1.383       .  S
C2481      F2496   1.382       .  S
C2483      F2491   1.379       .  S
C2483      F2492   1.382       .  S
C2483      F2493   1.385       .  S
C2497      C2498   1.404   1_655  A
C2497      C2502   1.411       .  A
C2497      H2507   1.085       .  S
C2498      C2503   1.507       .  S
C2498      C2499   1.421       .  A
C2499      C2500   1.418       .  A
C2499      C2504   1.517       .  S
C2500      C2501   1.406   1_455  A
C2500      H2505   1.083       .  S
C2501      C2502   1.421       .  A
C2502      C2506   1.517       .  S
C2503      C2508   1.418       .  A
C2503      C2512   1.407       .  A
C2504      F2520   1.382       .  S
C2504      F2521   1.382       .  S
C2504      F2522   1.385       .  S
C2506      F2517   1.383       .  S
C2506      F2518   1.384       .  S
C2506      F2519   1.382       .  S
C2508      C2509   1.413       .  A
C2508      C2513   1.523       .  S
C2509      C2510   1.413       .  A
C2509      H2514   1.082       .  S
C2510      C2511   1.425       .  A
C2511      C2512   1.423       .  A
C2511      C2515   1.515       .  S
C2512      H2516   1.083       .  S
C2513      F2526   1.385       .  S
C2513      F2527   1.381   1_455  S
C2513      F2528   1.382       .  S
C2515      F2523   1.382       .  S
C2515      F2524   1.383       .  S
C2515      F2525   1.385       .  S
C2529      C2530   1.402       .  A
C2529      C2534   1.405       .  A
C2529      H2539   1.083       .  S
C2530      C2535   1.466       .  S
C2530      C2531   1.409       .  A
C2531      C2532   1.396       .  A
C2531      C2536   1.521       .  S
C2532      C2533   1.408       .  A
C2532      H2537   1.083       .  S
C2533      C2534   1.419       .  A
C2534      C2538   1.516       .  S
C2535      C2540   1.412       .  A
C2535      C2544   1.401       .  A
C2536      F2552   1.383       .  S
C2536      F2553   1.381       .  S
C2536      F2554   1.385       .  S
C2538      F2549   1.381       .  S
C2538      F2550   1.385       .  S
C2538      F2551   1.383       .  S
C2540      C2541   1.404       .  A
C2540      C2545   1.515       .  S
C2541      C2542   1.406       .  A
C2541      H2546   1.085       .  S
C2542      C2543   1.414       .  A
C2543      C2544   1.390       .  A
C2543      C2547   1.521       .  S
C2544      H2548   1.086       .  S
C2545      F2558   1.383       .  S
C2545      F2559   1.382       .  S
C2545      F2560   1.382       .  S
C2547      F2555   1.383       .  S
C2547      F2556   1.379       .  S
C2547      F2557   1.384       .  S
C2561      C2562   1.402       .  A
C2561      C2566   1.396       .  A
C2561      H2571   1.084       .  S
C2562      C2567   1.467       .  S
C2562      C2563   1.410       .  A
C2563      C2564   1.405       .  A
C2563      C2568   1.516       .  S
C2564      C2565   1.405   1_655  A
C2564      H2569   1.083   1_655  S
C2565      C2566   1.410   1_455  A
C2566      C2570   1.519   1_655  S
C2567      C2572   1.412       .  A
C2567      C2576   1.401       .  A
C2568      F2584   1.381       .  S
C2568      F2585   1.382       .  S
C2568      F2586   1.384       .  S
C2570      F2581   1.382       .  S
C2570      F2582   1.385   1_455  S
C2570      F2583   1.383       .  S
C2572      C2573   1.397       .  A
C2572      C2577   1.516       .  S
C2573      C2574   1.405       .  A
C2573      H2578   1.084       .  S
C2574      C2575   1.416       .  A
C2575      C2576   1.401       .  A
C2575      C2579   1.514       .  S
C2576      H2580   1.085       .  S
C2577      F2590   1.384       .  S
C2577      F2591   1.383       .  S
C2577      F2592   1.382       .  S
C2579      F2587   1.382       .  S
C2579      F2588   1.383       .  S
C2579      F2589   1.384       .  S
C2593      C2594   1.410       .  A
C2593      C2598   1.426       .  A
C2593      H2603   1.083       .  S
C2594      C2599   1.530       .  S
C2594      C2595   1.425       .  A
C2595      C2596   1.426       .  A
C2595      C2600   1.519       .  S
C2596      C2597   1.410       .  A
C2596      H2601   1.083       .  S
C2597      C2598   1.422       .  A
C2598      C2602   1.516       .  S
C2599      C2604   1.427       .  A
C2599      C2608   1.404       .  A
C2600      F2616   1.383       .  S
C2600      F2617   1.381       .  S
C2600      F2618   1.384       .  S
C2602      F2613   1.383       .  S
C2602      F2614   1.384       .  S
C2602      F2615   1.384       .  S
C2604      C2605   1.431       .  A
C2604      C2609   1.518       .  S
C2605      C2606   1.411       .  A
C2605      H2610   1.083       .  S
C2606      C2607   1.431       .  A
C2607      C2608   1.420       .  A
C2607      C2611   1.519       .  S
C2608      H2612   1.084       .  S
C2609      F2622   1.384       .  S
C2609      F2623   1.383       .  S
C2609      F2624   1.381       .  S
C2611      F2619   1.383       .  S
C2611      F2620   1.383       .  S
C2611      F2621   1.383       .  S
C2625      C2626   1.406       .  A
C2625      C2630   1.422       .  A
C2625      H2635   1.084       .  S
C2626      C2631   1.529       .  S
C2626      C2627   1.424       .  A
C2627      C2628   1.429       .  A
C2627      C2632   1.517       .  S
C2628      C2629   1.412       .  A
C2628      H2633   1.083       .  S
C2629      C2630   1.427       .  A
C2630      C2634   1.516       .  S
C2631      C2636   1.424       .  A
C2631      C2640   1.411       .  A
C2632      F2648   1.383       .  S
C2632      F2649   1.382       .  S
C2632      F2650   1.384       .  S
C2634      F2645   1.383       .  S
C2634      F2646   1.384       .  S
C2634      F2647   1.383       .  S
C2636      C2637   1.423       .  A
C2636      C2641   1.517       .  S
C2637      C2638   1.406       .  A
C2637      H2642   1.083       .  S
C2638      C2639   1.424       .  A
C2639      C2640   1.427       .  A
C2639      C2643   1.517       .  S
C2640      H2644   1.083       .  S
C2641      F2654   1.384       .  S
C2641      F2655   1.383       .  S
C2641      F2656   1.382       .  S
C2643      F2651   1.384       .  S
C2643      F2652   1.384       .  S
C2643      F2653   1.382       .  S
C2657      C2658   1.407       .  A
C2657      C2662   1.417       .  A
C2657      H2667   1.083       .  S
C2658      C2663   1.501       .  S
C2658      C2659   1.420       .  A
C2659      C2660   1.410       .  A
C2659      C2664   1.522       .  S
C2660      C2661   1.406       .  A
C2660      H2665   1.083       .  S
C2661      C2662   1.416       .  A
C2662      C2666   1.515       .  S
C2663      C2668   1.420       .  A
C2663      C2672   1.403       .  A
C2664      F2680   1.382       .  S
C2664      F2681   1.383       .  S
C2664      F2682   1.385       .  S
C2666      F2677   1.384       .  S
C2666      F2678   1.384       .  S
C2666      F2679   1.382       .  S
C2668      C2669   1.417       .  A
C2668      C2673   1.519       .  S
C2669      C2670   1.407       .  A
C2669      H2674   1.083       .  S
C2670      C2671   1.418       .  A
C2671      C2672   1.411       .  A
C2671      C2675   1.515       .  S
C2672      H2676   1.083       .  S
C2673      F2686   1.385       .  S
C2673      F2687   1.383       .  S
C2673      F2688   1.383       .  S
C2675      F2683   1.383       .  S
C2675      F2684   1.382       .  S
C2675      F2685   1.385       .  S
C2689      C2690   1.401       .  A
C2689      C2694   1.415   1_455  A
C2689      H2699   1.085       .  S
C2690      C2695   1.519       .  S
C2690      C2691   1.422   1_455  A
C2691      C2692   1.427       .  A
C2691      C2696   1.517       .  S
C2692      C2693   1.413       .  A
C2692      H2697   1.083       .  S
C2693      C2694   1.427       .  A
C2694      C2698   1.517       .  S
C2695      C2700   1.415       .  A
C2695      C2704   1.410       .  A
C2696      F2712   1.383       .  S
C2696      F2713   1.383       .  S
C2696      F2714   1.384       .  S
C2698      F2709   1.383   1_655  S
C2698      F2710   1.384   1_655  S
C2698      F2711   1.381       .  S
C2700      C2701   1.413       .  A
C2700      C2705   1.522       .  S
C2701      C2702   1.419       .  A
C2701      H2706   1.079       .  S
C2702      C2703   1.430       .  A
C2703      C2704   1.430       .  A
C2703      C2707   1.515       .  S
C2704      H2708   1.082       .  S
C2705      F2718   1.384       .  S
C2705      F2719   1.382       .  S
C2705      F2720   1.379       .  S
C2707      F2715   1.383       .  S
C2707      F2716   1.383       .  S
C2707      F2717   1.384       .  S
C2721      C2722   1.407       .  A
C2721      C2726   1.423       .  A
C2721      H2731   1.083       .  S
C2722      C2727   1.522       .  S
C2722      C2723   1.423       .  A
C2723      C2724   1.424       .  A
C2723      C2728   1.520       .  S
C2724      C2725   1.412       .  A
C2724      H2729   1.083       .  S
C2725      C2726   1.422       .  A
C2726      C2730   1.513       .  S
C2727      C2732   1.426       .  A
C2727      C2736   1.403       .  A
C2728      F2744   1.383       .  S
C2728      F2745   1.382       .  S
C2728      F2746   1.384       .  S
C2730      F2741   1.385       .  S
C2730      F2742   1.383       .  S
C2730      F2743   1.382       .  S
C2732      C2733   1.426       .  A
C2732      C2737   1.517       .  S
C2733      C2734   1.409       .  A
C2733      H2738   1.083       .  S
C2734      C2735   1.426       .  A
C2735      C2736   1.416       .  A
C2735      C2739   1.516       .  S
C2736      H2740   1.084       .  S
C2737      F2750   1.385       .  S
C2737      F2751   1.382       .  S
C2737      F2752   1.381       .  S
C2739      F2747   1.383       .  S
C2739      F2748   1.383       .  S
C2739      F2749   1.384       .  S
C2753      C2754   1.399       .  A
C2753      C2758   1.392       .  A
C2753      H2763   1.086       .  S
C2754      C2759   1.463       .  S
C2754      C2755   1.407       .  A
C2755      C2756   1.404       .  A
C2755      C2760   1.516       .  S
C2756      C2757   1.406       .  A
C2756      H2761   1.084       .  S
C2757      C2758   1.413       .  A
C2758      C2762   1.519       .  S
C2759      C2764   1.416       .  A
C2759      C2768   1.396       .  A
C2760      F2776   1.382       .  S
C2760      F2777   1.383       .  S
C2760      F2778   1.382       .  S
C2762      F2773   1.383       .  S
C2762      F2774   1.382       .  S
C2762      F2775   1.380       .  S
C2764      C2765   1.399       .  A
C2764      C2769   1.516       .  S
C2765      C2766   1.398       .  A
C2765      H2770   1.085       .  S
C2766      C2767   1.414       .  A
C2767      C2768   1.393       .  A
C2767      C2771   1.511       .  S
C2768      H2772   1.085       .  S
C2769      F2782   1.383       .  S
C2769      F2783   1.383       .  S
C2769      F2784   1.383       .  S
C2771      F2779   1.383       .  S
C2771      F2780   1.384       .  S
C2771      F2781   1.383       .  S
C2785      C2786   1.396       .  A
C2785      C2790   1.403       .  A
C2785      H2795   1.083       .  S
C2786      C2791   1.466       .  S
C2786      C2787   1.418       .  A
C2787      C2788   1.398       .  A
C2787      C2792   1.525       .  S
C2788      C2789   1.399       .  A
C2788      H2793   1.081       .  S
C2789      C2790   1.417       .  A
C2790      C2794   1.514       .  S
C2791      C2796   1.412       .  A
C2791      C2800   1.396       .  A
C2792      F2808   1.382       .  S
C2792      F2809   1.381       .  S
C2792      F2810   1.385       .  S
C2794      F2805   1.384       .  S
C2794      F2806   1.380       .  S
C2794      F2807   1.382       .  S
C2796      C2797   1.403       .  A
C2796      C2801   1.516       .  S
C2797      C2798   1.402       .  A
C2797      H2802   1.083       .  S
C2798      C2799   1.416       .  A
C2799      C2800   1.395       .  A
C2799      C2803   1.515       .  S
C2800      H2804   1.085       .  S
C2801      F2814   1.385       .  S
C2801      F2815   1.383       .  S
C2801      F2816   1.382       .  S
C2803      F2811   1.384       .  S
C2803      F2812   1.384       .  S
C2803      F2813   1.382       .  S
C2817      C2818   1.402       .  A
C2817      C2822   1.398       .  A
C2817      H2827   1.084       .  S
C2818      C2823   1.473       .  S
C2818      C2819   1.413       .  A
C2819      C2820   1.407       .  A
C2819      C2824   1.518       .  S
C2820      C2821   1.405       .  A
C2820      H2825   1.083       .  S
C2821      C2822   1.413       .  A
C2822      C2826   1.518       .  S
C2823      C2828   1.417       .  A
C2823      C2832   1.398       .  A
C2824      F2840   1.382       .  S
C2824      F2841   1.381       .  S
C2824      F2842   1.384       .  S
C2826      F2837   1.380       .  S
C2826      F2838   1.385       .  S
C2826      F2839   1.384       .  S
C2828      C2829   1.403       .  A
C2828      C2833   1.517       .  S
C2829      C2830   1.402       .  A
C2829      H2834   1.083       .  S
C2830      C2831   1.418       .  A
C2831      C2832   1.395       .  A
C2831      C2835   1.515       .  S
C2832      H2836   1.085       .  S
C2833      F2846   1.385       .  S
C2833      F2847   1.382       .  S
C2833      F2848   1.380       .  S
C2835      F2843   1.383       .  S
C2835      F2844   1.383       .  S
C2835      F2845   1.384       .  S
C2849      C2850   1.403       .  A
C2849      C2854   1.400       .  A
C2849      H2859   1.083       .  S
C2850      C2855   1.466       .  S
C2850      C2851   1.410       .  A
C2851      C2852   1.397       .  A
C2851      C2856   1.520       .  S
C2852      C2853   1.404       .  A
C2852      H2857   1.081       .  S
C2853      C2854   1.410       .  A
C2854      C2858   1.516       .  S
C2855      C2860   1.409       .  A
C2855      C2864   1.405       .  A
C2856      F2872   1.382       .  S
C2856      F2873   1.381       .  S
C2856      F2874   1.385       .  S
C2858      F2869   1.383       .  S
C2858      F2870   1.381       .  S
C2858      F2871   1.383       .  S
C2860      C2861   1.400       .  A
C2860      C2865   1.518       .  S
C2861      C2862   1.403       .  A
C2861      H2866   1.084       .  S
C2862      C2863   1.407       .  A
C2863      C2864   1.399       .  A
C2863      C2867   1.516       .  S
C2864      H2868   1.084       .  S
C2865      F2878   1.384       .  S
C2865      F2879   1.382       .  S
C2865      F2880   1.380       .  S
C2867      F2875   1.383       .  S
C2867      F2876   1.382       .  S
C2867      F2877   1.385       .  S
C2881      C2882   1.413       .  A
C2881      C2886   1.427       .  A
C2881      H2891   1.083       .  S
C2882      C2887   1.539       .  S
C2882      C2883   1.425       .  A
C2883      C2884   1.429       .  A
C2883      C2888   1.517       .  S
C2884      C2885   1.412       .  A
C2884      H2889   1.083       .  S
C2885      C2886   1.422       .  A
C2886      C2890   1.516       .  S
C2887      C2892   1.425       .  A
C2887      C2896   1.413       .  A
C2888      F2904   1.382       .  S
C2888      F2905   1.382       .  S
C2888      F2906   1.385       .  S
C2890      F2901   1.383       .  S
C2890      F2902   1.384       .  S
C2890      F2903   1.384       .  S
C2892      C2893   1.427       .  A
C2892      C2897   1.517       .  S
C2893      C2894   1.409       .  A
C2893      H2898   1.083       .  S
C2894      C2895   1.427       .  A
C2895      C2896   1.432       .  A
C2895      C2899   1.517       .  S
C2896      H2900   1.082       .  S
C2897      F2910   1.384       .  S
C2897      F2911   1.382       .  S
C2897      F2912   1.383       .  S
C2899      F2907   1.382       .  S
C2899      F2908   1.383       .  S
C2899      F2909   1.385       .  S
C2913      C2914   1.411       .  A
C2913      C2918   1.424       .  A
C2913      H2923   1.082   1_455  S
C2914      C2919   1.514       .  S
C2914      C2915   1.418       .  A
C2915      C2916   1.412       .  A
C2915      C2920   1.520       .  S
C2916      C2917   1.411       .  A
C2916      H2921   1.083       .  S
C2917      C2918   1.424       .  A
C2918      C2922   1.517       .  S
C2919      C2924   1.417   1_455  A
C2919      C2928   1.406       .  A
C2920      F2936   1.381       .  S
C2920      F2937   1.383       .  S
C2920      F2938   1.385       .  S
C2922      F2933   1.385   1_455  S
C2922      F2934   1.382       .  S
C2922      F2935   1.383       .  S
C2924      C2925   1.416       .  A
C2924      C2929   1.521       .  S
C2925      C2926   1.417       .  A
C2925      H2930   1.081       .  S
C2926      C2927   1.431       .  A
C2927      C2928   1.423   1_655  A
C2927      C2931   1.517   1_655  S
C2928      H2932   1.082       .  S
C2929      F2942   1.384       .  S
C2929      F2943   1.382       .  S
C2929      F2944   1.383   1_655  S
C2931      F2939   1.382   1_455  S
C2931      F2940   1.383       .  S
C2931      F2941   1.385       .  S
C2945      C2946   1.403       .  A
C2945      C2950   1.397   1_655  A
C2945      H2955   1.084       .  S
C2946      C2951   1.460       .  S
C2946      C2947   1.407       .  A
C2947      C2948   1.396       .  A
C2947      C2952   1.516       .  S
C2948      C2949   1.401   1_655  A
C2948      H2953   1.083   1_655  S
C2949      C2950   1.407       .  A
C2950      C2954   1.517       .  S
C2951      C2956   1.408       .  A
C2951      C2960   1.405       .  A
C2952      F2968   1.382       .  S
C2952      F2969   1.383       .  S
C2952      F2970   1.385       .  S
C2954      F2965   1.384       .  S
C2954      F2966   1.383       .  S
C2954      F2967   1.383       .  S
C2956      C2957   1.396       .  A
C2956      C2961   1.519       .  S
C2957      C2958   1.403       .  A
C2957      H2962   1.081       .  S
C2958      C2959   1.410       .  A
C2959      C2960   1.402       .  A
C2959      C2963   1.516       .  S
C2960      H2964   1.084       .  S
C2961      F2974   1.382       .  S
C2961      F2975   1.383       .  S
C2961      F2976   1.383       .  S
C2963      F2971   1.385       .  S
C2963      F2972   1.383       .  S
C2963      F2973   1.383       .  S
C2977      C2978   1.395       .  A
C2977      C2982   1.408       .  A
C2977      H2987   1.083       .  S
C2978      C2983   1.472       .  S
C2978      C2979   1.412       .  A
C2979      C2980   1.397       .  A
C2979      C2984   1.525       .  S
C2980      C2981   1.411       .  A
C2980      H2985   1.080       .  S
C2981      C2982   1.430       .  A
C2982      C2986   1.518       .  S
C2983      C2988   1.413       .  A
C2983      C2992   1.399       .  A
C2984      F3000   1.382       .  S
C2984      F3001   1.382       .  S
C2984      F3002   1.384       .  S
C2986      F2997   1.383       .  S
C2986      F2998   1.385       .  S
C2986      F2999   1.382       .  S
C2988      C2989   1.394       .  A
C2988      C2993   1.521       .  S
C2989      C2990   1.405       .  A
C2989      H2994   1.082       .  S
C2990      C2991   1.420       .  A
C2991      C2992   1.406       .  A
C2991      C2995   1.509       .  S
C2992      H2996   1.083       .  S
C2993      F3006   1.385       .  S
C2993      F3007   1.383       .  S
C2993      F3008   1.382       .  S
C2995      F3003   1.385       .  S
C2995      F3004   1.383       .  S
C2995      F3005   1.380       .  S
C3009      C3010   1.402       .  A
C3009      C3014   1.395       .  A
C3009      H3019   1.085       .  S
C3010      C3015   1.467       .  S
C3010      C3011   1.410       .  A
C3011      C3012   1.404       .  A
C3011      C3016   1.518       .  S
C3012      C3013   1.404       .  A
C3012      H3017   1.083       .  S
C3013      C3014   1.412       .  A
C3014      C3018   1.521       .  S
C3015      C3020   1.415       .  A
C3015      C3024   1.397       .  A
C3016      F3032   1.381       .  S
C3016      F3033   1.384       .  S
C3016      F3034   1.384       .  S
C3018      F3029   1.382       .  S
C3018      F3030   1.383       .  S
C3018      F3031   1.384       .  S
C3020      C3021   1.399       .  A
C3020      C3025   1.512       .  S
C3021      C3022   1.399       .  A
C3021      H3026   1.085       .  S
C3022      C3023   1.414       .  A
C3023      C3024   1.394       .  A
C3023      C3027   1.513       .  S
C3024      H3028   1.084       .  S
C3025      F3038   1.384       .  S
C3025      F3039   1.379       .  S
C3025      F3040   1.380       .  S
C3027      F3035   1.382       .  S
C3027      F3036   1.384       .  S
C3027      F3037   1.384       .  S
C3041      C3042   1.409       .  A
C3041      C3046   1.424       .  A
C3041      H3051   1.082       .  S
C3042      C3047   1.511       .  S
C3042      C3043   1.419       .  A
C3043      C3044   1.412       .  A
C3043      C3048   1.522       .  S
C3044      C3045   1.411       .  A
C3044      H3049   1.083       .  S
C3045      C3046   1.422       .  A
C3046      C3050   1.515       .  S
C3047      C3052   1.418       .  A
C3047      C3056   1.407       .  A
C3048      F3064   1.382       .  S
C3048      F3065   1.382       .  S
C3048      F3066   1.385       .  S
C3050      F3061   1.384       .  S
C3050      F3062   1.383       .  S
C3050      F3063   1.382       .  S
C3052      C3053   1.418       .  A
C3052      C3057   1.517       .  S
C3053      C3054   1.408       .  A
C3053      H3058   1.083       .  S
C3054      C3055   1.420       .  A
C3055      C3056   1.418       .  A
C3055      C3059   1.514       .  S
C3056      H3060   1.083       .  S
C3057      F3070   1.384       .  S
C3057      F3071   1.383       .  S
C3057      F3072   1.382       .  S
C3059      F3067   1.383       .  S
C3059      F3068   1.377       .  S
C3059      F3069   1.384       .  S
C3073      C3074   1.402       .  A
C3073      C3078   1.398       .  A
C3073      H3083   1.084       .  S
C3074      C3079   1.468       .  S
C3074      C3075   1.415       .  A
C3075      C3076   1.403       .  A
C3075      C3080   1.518       .  S
C3076      C3077   1.401       .  A
C3076      H3081   1.085       .  S
C3077      C3078   1.408       .  A
C3078      C3082   1.515       .  S
C3079      C3084   1.409       .  A
C3079      C3088   1.405       .  A
C3080      F3096   1.383       .  S
C3080      F3097   1.382       .  S
C3080      F3098   1.383       .  S
C3082      F3093   1.382       .  S
C3082      F3094   1.383       .  S
C3082      F3095   1.382       .  S
C3084      C3085   1.399       .  A
C3084      C3089   1.518       .  S
C3085      C3086   1.404       .  A
C3085      H3090   1.084       .  S
C3086      C3087   1.409       .  A
C3087      C3088   1.404       .  A
C3087      C3091   1.516       .  S
C3088      H3092   1.083       .  S
C3089      F3102   1.384       .  S
C3089      F3103   1.382       .  S
C3089      F3104   1.382       .  S
C3091      F3099   1.384       .  S
C3091      F3100   1.383       .  S
C3091      F3101   1.384       .  S
C3105      C3106   1.414       .  A
C3105      C3110   1.427       .  A
C3105      H3115   1.083       .  S
C3106      C3111   1.531       .  S
C3106      C3107   1.421       .  A
C3107      C3108   1.423       .  A
C3107      C3112   1.519       .  S
C3108      C3109   1.412       .  A
C3108      H3113   1.082       .  S
C3109      C3110   1.418       .  A
C3110      C3114   1.515       .  S
C3111      C3116   1.423       .  A
C3111      C3120   1.413       .  A
C3112      F3128   1.382       .  S
C3112      F3129   1.383       .  S
C3112      F3130   1.385       .  S
C3114      F3125   1.384       .  S
C3114      F3126   1.384       .  S
C3114      F3127   1.383       .  S
C3116      C3117   1.423       .  A
C3116      C3121   1.522       .  S
C3117      C3118   1.414       .  A
C3117      H3122   1.083       .  S
C3118      C3119   1.424       .  A
C3119      C3120   1.431       .  A
C3119      C3123   1.514       .  S
C3120      H3124   1.082       .  S
C3121      F3134   1.384   1_565  S
C3121      F3135   1.382       .  S
C3121      F3136   1.382   1_565  S
C3123      F3131   1.382       .  S
C3123      F3132   1.383       .  S
C3123      F3133   1.384       .  S
C3137      C3138   1.403       .  A
C3137      C3142   1.410       .  A
C3137      H3147   1.084       .  S
C3138      C3143   1.498       .  S
C3138      C3139   1.420   1_556  A
C3139      C3140   1.417       .  A
C3139      C3144   1.519       .  S
C3140      C3141   1.406       .  A
C3140      H3145   1.083       .  S
C3141      C3142   1.421   1_554  A
C3142      C3146   1.518       .  S
C3143      C3148   1.423   1_455  A
C3143      C3152   1.392       .  A
C3144      F3160   1.382       .  S
C3144      F3161   1.381   1_455  S
C3144      F3162   1.384       .  S
C3146      F3157   1.382       .  S
C3146      F3158   1.385       .  S
C3146      F3159   1.384       .  S
C3148      C3149   1.423       .  A
C3148      C3153   1.518       .  S
C3149      C3150   1.408       .  A
C3149      H3154   1.083       .  S
C3150      C3151   1.431   1_655  A
C3151      C3152   1.401       .  A
C3151      C3155   1.519       .  S
C3152      H3156   1.086       .  S
C3153      F3166   1.385       .  S
C3153      F3167   1.383   1_655  S
C3153      F3168   1.381   1_556  S
C3155      F3163   1.385       .  S
C3155      F3164   1.377   1_455  S
C3155      F3165   1.383       .  S
C3169      C3170   1.402   1_556  A
C3169      C3174   1.410   1_556  A
C3169      H3179   1.085       .  S
C3170      C3175   1.506   1_554  S
C3170      C3171   1.419       .  A
C3171      C3172   1.421       .  A
C3171      C3176   1.517       .  S
C3172      C3173   1.409       .  A
C3172      H3177   1.083       .  S
C3173      C3174   1.425       .  A
C3174      C3178   1.519       .  S
C3175      C3180   1.423       .  A
C3175      C3184   1.404       .  A
C3176      F3192   1.382       .  S
C3176      F3193   1.384       .  S
C3176      F3194   1.384       .  S
C3178      F3189   1.384   1_554  S
C3178      F3190   1.383   1_554  S
C3178      F3191   1.381       .  S
C3180      C3181   1.416       .  A
C3180      C3185   1.516       .  S
C3181      C3182   1.405       .  A
C3181      H3186   1.084       .  S
C3182      C3183   1.421       .  A
C3183      C3184   1.410       .  A
C3183      C3187   1.519       .  S
C3184      H3188   1.084   1_556  S
C3185      F3198   1.384       .  S
C3185      F3199   1.383       .  S
C3185      F3200   1.383       .  S
C3187      F3195   1.383       .  S
C3187      F3196   1.383       .  S
C3187      F3197   1.384   1_556  S
C3201      C3202   1.409       .  A
C3201      C3206   1.418       .  A
C3201      H3211   1.083       .  S
C3202      C3207   1.501       .  S
C3202      C3203   1.415       .  A
C3203      C3204   1.409       .  A
C3203      C3208   1.520       .  S
C3204      C3205   1.408       .  A
C3204      H3209   1.083       .  S
C3205      C3206   1.416       .  A
C3206      C3210   1.512       .  S
C3207      C3212   1.412       .  A
C3207      C3216   1.407       .  A
C3208      F3224   1.382       .  S
C3208      F3225   1.382       .  S
C3208      F3226   1.385       .  S
C3210      F3221   1.385       .  S
C3210      F3222   1.381       .  S
C3210      F3223   1.383       .  S
C3212      C3213   1.408       .  A
C3212      C3217   1.521       .  S
C3213      C3214   1.416       .  A
C3213      H3218   1.081       .  S
C3214      C3215   1.426       .  A
C3215      C3216   1.420       .  A
C3215      C3219   1.519       .  S
C3216      H3220   1.083       .  S
C3217      F3230   1.385       .  S
C3217      F3231   1.382       .  S
C3217      F3232   1.382       .  S
C3219      F3227   1.383       .  S
C3219      F3228   1.384       .  S
C3219      F3229   1.384       .  S
C3233      C3234   1.404       .  A
C3233      C3238   1.418       .  A
C3233      H3243   1.083       .  S
C3234      C3239   1.491       .  S
C3234      C3235   1.413       .  A
C3235      C3236   1.404       .  A
C3235      C3240   1.524       .  S
C3236      C3237   1.412       .  A
C3236      H3241   1.082       .  S
C3237      C3238   1.426       .  A
C3238      C3242   1.517       .  S
C3239      C3244   1.416       .  A
C3239      C3248   1.401       .  A
C3240      F3256   1.383       .  S
C3240      F3257   1.381       .  S
C3240      F3258   1.384       .  S
C3242      F3253   1.385       .  S
C3242      F3254   1.383       .  S
C3242      F3255   1.383       .  S
C3244      C3245   1.412       .  A
C3244      C3249   1.518       .  S
C3245      C3246   1.408       .  A
C3245      H3250   1.083       .  S
C3246      C3247   1.422       .  A
C3247      C3248   1.407       .  A
C3247      C3251   1.518       .  S
C3248      H3252   1.084       .  S
C3249      F3262   1.385       .  S
C3249      F3263   1.382       .  S
C3249      F3264   1.382       .  S
C3251      F3259   1.385       .  S
C3251      F3260   1.384       .  S
C3251      F3261   1.383       .  S
C3265      C3266   1.407       .  A
C3265      C3270   1.424       .  A
C3265      H3275   1.083       .  S
C3266      C3271   1.525       .  S
C3266      C3267   1.423       .  A
C3267      C3268   1.426       .  A
C3267      C3272   1.519       .  S
C3268      C3269   1.411       .  A
C3268      H3273   1.083       .  S
C3269      C3270   1.426       .  A
C3270      C3274   1.517       .  S
C3271      C3276   1.424       .  A
C3271      C3280   1.407       .  A
C3272      F3288   1.383       .  S
C3272      F3289   1.383       .  S
C3272      F3290   1.384       .  S
C3274      F3285   1.383       .  S
C3274      F3286   1.385       .  S
C3274      F3287   1.383       .  S
C3276      C3277   1.425       .  A
C3276      C3281   1.517       .  S
C3277      C3278   1.409       .  A
C3277      H3282   1.083       .  S
C3278      C3279   1.423       .  A
C3279      C3280   1.422       .  A
C3279      C3283   1.517       .  S
C3280      H3284   1.083       .  S
C3281      F3294   1.384       .  S
C3281      F3295   1.383       .  S
C3281      F3296   1.382       .  S
C3283      F3291   1.384       .  S
C3283      F3292   1.383       .  S
C3283      F3293   1.382       .  S
C3297      C3298   1.403       .  A
C3297      C3302   1.404   1_556  A
C3297      H3307   1.084       .  S
C3298      C3303   1.502       .  S
C3298      C3299   1.424   1_546  A
C3299      C3300   1.416   1_565  A
C3299      C3304   1.516       .  S
C3300      C3301   1.402       .  A
C3300      H3305   1.083   1_545  S
C3301      C3302   1.420       .  A
C3302      C3306   1.519   1_554  S
C3303      C3308   1.419   1_545  A
C3303      C3312   1.412       .  A
C3304      F3320   1.381       .  S
C3304      F3321   1.383       .  S
C3304      F3322   1.385       .  S
C3306      F3317   1.384       .  S
C3306      F3318   1.383       .  S
C3306      F3319   1.384   1_556  S
C3308      C3309   1.407       .  A
C3308      C3313   1.522       .  S
C3309      C3310   1.403       .  A
C3309      H3314   1.082       .  S
C3310      C3311   1.413   1_565  A
C3311      C3312   1.418       .  A
C3311      C3315   1.516       .  S
C3312      H3316   1.082   1_556  S
C3313      F3326   1.384       .  S
C3313      F3327   1.381   1_565  S
C3313      F3328   1.384       .  S
C3315      F3323   1.384   1_556  S
C3315      F3324   1.383       .  S
C3315      F3325   1.384   1_545  S
C3329      C3330   1.403       .  A
C3329      C3334   1.409       .  A
C3329      H3339   1.084       .  S
C3330      C3335   1.498   1_556  S
C3330      C3331   1.421       .  A
C3331      C3332   1.413       .  A
C3331      C3336   1.516   1_546  S
C3332      C3333   1.405       .  A
C3332      H3337   1.084       .  S
C3333      C3334   1.422       .  A
C3334      C3338   1.516       .  S
C3335      C3340   1.417       .  A
C3335      C3344   1.401       .  A
C3336      F3352   1.383   1_565  S
C3336      F3353   1.383       .  S
C3336      F3354   1.384       .  S
C3338      F3349   1.385       .  S
C3338      F3350   1.382       .  S
C3338      F3351   1.384       .  S
C3340      C3341   1.414       .  A
C3340      C3345   1.517   1_544  S
C3341      C3342   1.411       .  A
C3341      H3346   1.082       .  S
C3342      C3343   1.428       .  A
C3343      C3344   1.408       .  A
C3343      C3347   1.520       .  S
C3344      H3348   1.083       .  S
C3345      F3358   1.385   1_556  S
C3345      F3359   1.381       .  S
C3345      F3360   1.383   1_556  S
C3347      F3355   1.382       .  S
C3347      F3356   1.383       .  S
C3347      F3357   1.385       .  S
C3361      C3362   1.402       .  A
C3361      C3366   1.398       .  A
C3361      H3371   1.084       .  S
C3362      C3367   1.468       .  S
C3362      C3363   1.412       .  A
C3363      C3364   1.405       .  A
C3363      C3368   1.519       .  S
C3364      C3365   1.402       .  A
C3364      H3369   1.082       .  S
C3365      C3366   1.409       .  A
C3366      C3370   1.518       .  S
C3367      C3372   1.417       .  A
C3367      C3376   1.398       .  A
C3368      F3384   1.382       .  S
C3368      F3385   1.381       .  S
C3368      F3386   1.384       .  S
C3370      F3381   1.384       .  S
C3370      F3382   1.383       .  S
C3370      F3383   1.381       .  S
C3372      C3373   1.403       .  A
C3372      C3377   1.521       .  S
C3373      C3374   1.401       .  A
C3373      H3378   1.082       .  S
C3374      C3375   1.415       .  A
C3375      C3376   1.398       .  A
C3375      C3379   1.517       .  S
C3376      H3380   1.085       .  S
C3377      F3390   1.384       .  S
C3377      F3391   1.382       .  S
C3377      F3392   1.379       .  S
C3379      F3387   1.384       .  S
C3379      F3388   1.383       .  S
C3379      F3389   1.383       .  S
C3393      C3394   1.407       .  A
C3393      C3398   1.415       .  A
C3393      H3403   1.083       .  S
C3394      C3399   1.500       .  S
C3394      C3395   1.417       .  A
C3395      C3396   1.411       .  A
C3395      C3400   1.519       .  S
C3396      C3397   1.404       .  A
C3396      H3401   1.083       .  S
C3397      C3398   1.416       .  A
C3398      C3402   1.514       .  S
C3399      C3404   1.411       .  A
C3399      C3408   1.407       .  A
C3400      F3416   1.382       .  S
C3400      F3417   1.381       .  S
C3400      F3418   1.384       .  S
C3402      F3413   1.384       .  S
C3402      F3414   1.385       .  S
C3402      F3415   1.381       .  S
C3404      C3405   1.409       .  A
C3404      C3409   1.522       .  S
C3405      C3406   1.417       .  A
C3405      H3410   1.079       .  S
C3406      C3407   1.427       .  A
C3407      C3408   1.420       .  A
C3407      C3411   1.517       .  S
C3408      H3412   1.083       .  S
C3409      F3422   1.384       .  S
C3409      F3423   1.382       .  S
C3409      F3424   1.381       .  S
C3411      F3419   1.382       .  S
C3411      F3420   1.384       .  S
C3411      F3421   1.385       .  S
C3425      C3426   1.402       .  A
C3425      C3430   1.415       .  A
C3425      H3435   1.082       .  S
C3426      C3431   1.501       .  S
C3426      C3427   1.419       .  A
C3427      C3428   1.411       .  A
C3427      C3432   1.522   1_545  S
C3428      C3429   1.410       .  A
C3428      H3433   1.083       .  S
C3429      C3430   1.427       .  A
C3430      C3434   1.517       .  S
C3431      C3436   1.418       .  A
C3431      C3440   1.403   1_545  A
C3432      F3448   1.382       .  S
C3432      F3449   1.383       .  S
C3432      F3450   1.384       .  S
C3434      F3445   1.382       .  S
C3434      F3446   1.385       .  S
C3434      F3447   1.382       .  S
C3436      C3437   1.412       .  A
C3436      C3441   1.522       .  S
C3437      C3438   1.410   1_545  A
C3437      H3442   1.083       .  S
C3438      C3439   1.422       .  A
C3439      C3440   1.414       .  A
C3439      C3443   1.517       .  S
C3440      H3444   1.082       .  S
C3441      F3454   1.384       .  S
C3441      F3455   1.382       .  S
C3441      F3456   1.383       .  S
C3443      F3451   1.384       .  S
C3443      F3452   1.382       .  S
C3443      F3453   1.383       .  S
C3457      C3458   1.402       .  A
C3457      C3462   1.399       .  A
C3457      H3467   1.083       .  S
C3458      C3463   1.470       .  S
C3458      C3459   1.411       .  A
C3459      C3460   1.397       .  A
C3459      C3464   1.514       .  S
C3460      C3461   1.403       .  A
C3460      H3465   1.085       .  S
C3461      C3462   1.416       .  A
C3462      C3466   1.517       .  S
C3463      C3468   1.412       .  A
C3463      C3472   1.405       .  A
C3464      F3480   1.382       .  S
C3464      F3481   1.383       .  S
C3464      F3482   1.384       .  S
C3466      F3477   1.385       .  S
C3466      F3478   1.379       .  S
C3466      F3479   1.383       .  S
C3468      C3469   1.403       .  A
C3468      C3473   1.520       .  S
C3469      C3470   1.404       .  A
C3469      H3474   1.084       .  S
C3470      C3471   1.407       .  A
C3471      C3472   1.399       .  A
C3471      C3475   1.517       .  S
C3472      H3476   1.083       .  S
C3473      F3486   1.384       .  S
C3473      F3487   1.381       .  S
C3473      F3488   1.383       .  S
C3475      F3483   1.384       .  S
C3475      F3484   1.384       .  S
C3475      F3485   1.382       .  S
C3489      C3490   1.410       .  A
C3489      C3494   1.425       .  A
C3489      H3499   1.082       .  S
C3490      C3495   1.526       .  S
C3490      C3491   1.423       .  A
C3491      C3492   1.421       .  A
C3491      C3496   1.518   1_565  S
C3492      C3493   1.409       .  A
C3492      H3497   1.083       .  S
C3493      C3494   1.422       .  A
C3494      C3498   1.515       .  S
C3495      C3500   1.421       .  A
C3495      C3504   1.411       .  A
C3496      F3512   1.382       .  S
C3496      F3513   1.383       .  S
C3496      F3514   1.385       .  S
C3498      F3509   1.384       .  S
C3498      F3510   1.381       .  S
C3498      F3511   1.383       .  S
C3500      C3501   1.422       .  A
C3500      C3505   1.518       .  S
C3501      C3502   1.411       .  A
C3501      H3506   1.083       .  S
C3502      C3503   1.423       .  A
C3503      C3504   1.423       .  A
C3503      C3507   1.515       .  S
C3504      H3508   1.084       .  S
C3505      F3518   1.384       .  S
C3505      F3519   1.382       .  S
C3505      F3520   1.383       .  S
C3507      F3515   1.383       .  S
C3507      F3516   1.382       .  S
C3507      F3517   1.383   1_565  S
C3521      C3522   1.399       .  A
C3521      C3526   1.407       .  A
C3521      H3531   1.084       .  S
C3522      C3527   1.496       .  S
C3522      C3523   1.419       .  A
C3523      C3524   1.417       .  A
C3523      C3528   1.519       .  S
C3524      C3525   1.409       .  A
C3524      H3529   1.083       .  S
C3525      C3526   1.423       .  A
C3526      C3530   1.517       .  S
C3527      C3532   1.414       .  A
C3527      C3536   1.412       .  A
C3528      F3544   1.382       .  S
C3528      F3545   1.383       .  S
C3528      F3546   1.384       .  S
C3530      F3541   1.385       .  S
C3530      F3542   1.383       .  S
C3530      F3543   1.384       .  S
C3532      C3533   1.404       .  A
C3532      C3537   1.522       .  S
C3533      C3534   1.408       .  A
C3533      H3538   1.082       .  S
C3534      C3535   1.413       .  A
C3535      C3536   1.419       .  A
C3535      C3539   1.513       .  S
C3536      H3540   1.083       .  S
C3537      F3550   1.385       .  S
C3537      F3551   1.382       .  S
C3537      F3552   1.382       .  S
C3539      F3547   1.384       .  S
C3539      F3548   1.382       .  S
C3539      F3549   1.383       .  S
C3553      C3554   1.407       .  A
C3553      C3558   1.415       .  A
C3553      H3563   1.083       .  S
C3554      C3559   1.500       .  S
C3554      C3555   1.418       .  A
C3555      C3556   1.411       .  A
C3555      C3560   1.519       .  S
C3556      C3557   1.405       .  A
C3556      H3561   1.083       .  S
C3557      C3558   1.415       .  A
C3558      C3562   1.515       .  S
C3559      C3564   1.419   1_545  A
C3559      C3568   1.407       .  A
C3560      F3576   1.382       .  S
C3560      F3577   1.383       .  S
C3560      F3578   1.384       .  S
C3562      F3573   1.383       .  S
C3562      F3574   1.385       .  S
C3562      F3575   1.383       .  S
C3564      C3565   1.410       .  A
C3564      C3569   1.523       .  S
C3565      C3566   1.406       .  A
C3565      H3570   1.083       .  S
C3566      C3567   1.417       .  A
C3567      C3568   1.416   1_565  A
C3567      C3571   1.517       .  S
C3568      H3572   1.082       .  S
C3569      F3582   1.384       .  S
C3569      F3583   1.382       .  S
C3569      F3584   1.383   1_565  S
C3571      F3579   1.382       .  S
C3571      F3580   1.385       .  S
C3571      F3581   1.384   1_565  S
C3585      C3586   1.408       .  A
C3585      C3590   1.421       .  A
C3585      H3595   1.083       .  S
C3586      C3591   1.505       .  S
C3586      C3587   1.418       .  A
C3587      C3588   1.412       .  A
C3587      C3592   1.521       .  S
C3588      C3589   1.409       .  A
C3588      H3593   1.083       .  S
C3589      C3590   1.420       .  A
C3590      C3594   1.515       .  S
C3591      C3596   1.420       .  A
C3591      C3600   1.407       .  A
C3592      F3608   1.382       .  S
C3592      F3609   1.383       .  S
C3592      F3610   1.385       .  S
C3594      F3605   1.385       .  S
C3594      F3606   1.383       .  S
C3594      F3607   1.383       .  S
C3596      C3597   1.413       .  A
C3596      C3601   1.518       .  S
C3597      C3598   1.403       .  A
C3597      H3602   1.083       .  S
C3598      C3599   1.417       .  A
C3599      C3600   1.417       .  A
C3599      C3603   1.517       .  S
C3600      H3604   1.083       .  S
C3601      F3614   1.384       .  S
C3601      F3615   1.382       .  S
C3601      F3616   1.382       .  S
C3603      F3611   1.384       .  S
C3603      F3612   1.383       .  S
C3603      F3613   1.382       .  S
C3617      C3618   1.402       .  A
C3617      C3622   1.401       .  A
C3617      H3627   1.084       .  S
C3618      C3623   1.467       .  S
C3618      C3619   1.412       .  A
C3619      C3620   1.399       .  A
C3619      C3624   1.517       .  S
C3620      C3621   1.403       .  A
C3620      H3625   1.085       .  S
C3621      C3622   1.412       .  A
C3622      C3626   1.515       .  S
C3623      C3628   1.409       .  A
C3623      C3632   1.404       .  A
C3624      F3640   1.383       .  S
C3624      F3641   1.382       .  S
C3624      F3642   1.384       .  S
C3626      F3637   1.383       .  S
C3626      F3638   1.384       .  S
C3626      F3639   1.381       .  S
C3628      C3629   1.404       .  A
C3628      C3633   1.518       .  S
C3629      C3630   1.404       .  A
C3629      H3634   1.083       .  S
C3630      C3631   1.407       .  A
C3631      C3632   1.400       .  A
C3631      C3635   1.516       .  S
C3632      H3636   1.084       .  S
C3633      F3646   1.384       .  S
C3633      F3647   1.382       .  S
C3633      F3648   1.383       .  S
C3635      F3643   1.385       .  S
C3635      F3644   1.383       .  S
C3635      F3645   1.383       .  S
C3649      C3650   1.397       .  A
C3649      C3654   1.408       .  A
C3649      H3659   1.083   1_455  S
C3650      C3655   1.502   1_455  S
C3650      C3651   1.423   1_545  A
C3651      C3652   1.423   1_565  A
C3651      C3656   1.520   1_556  S
C3652      C3653   1.409       .  A
C3652      H3657   1.083   1_545  S
C3653      C3654   1.421       .  A
C3654      C3658   1.511       .  S
C3655      C3660   1.423   1_556  A
C3655      C3664   1.398   1_545  A
C3656      F3672   1.383       .  S
C3656      F3673   1.381       .  S
C3656      F3674   1.384       .  S
C3658      F3669   1.381       .  S
C3658      F3670   1.385   1_455  S
C3658      F3671   1.381       .  S
C3660      C3661   1.422       .  A
C3660      C3665   1.518       .  S
C3661      C3662   1.408   1_545  A
C3661      H3666   1.083       .  S
C3662      C3663   1.425       .  A
C3663      C3664   1.405   1_554  A
C3663      C3667   1.516   1_554  S
C3664      H3668   1.085       .  S
C3665      F3678   1.384       .  S
C3665      F3679   1.383   1_554  S
C3665      F3680   1.380   1_655  S
C3667      F3675   1.384       .  S
C3667      F3676   1.383   1_556  S
C3667      F3677   1.383       .  S
C3681      C3682   1.400       .  A
C3681      C3686   1.405       .  A
C3681      H3691   1.085       .  S
C3682      C3687   1.501   1_556  S
C3682      C3683   1.421   1_565  A
C3683      C3684   1.421       .  A
C3683      C3688   1.518   1_556  S
C3684      C3685   1.410   1_545  A
C3684      H3689   1.083       .  S
C3685      C3686   1.420       .  A
C3686      C3690   1.516       .  S
C3687      C3692   1.415       .  A
C3687      C3696   1.407   1_565  A
C3688      F3704   1.383       .  S
C3688      F3705   1.380       .  S
C3688      F3706   1.385   1_554  S
C3690      F3701   1.384       .  S
C3690      F3702   1.383       .  S
C3690      F3703   1.382       .  S
C3692      C3693   1.411       .  A
C3692      C3697   1.523       .  S
C3693      C3694   1.414       .  A
C3693      H3698   1.082       .  S
C3694      C3695   1.428   1_565  A
C3695      C3696   1.422       .  A
C3695      C3699   1.518       .  S
C3696      H3700   1.083   1_554  S
C3697      F3710   1.384       .  S
C3697      F3711   1.383   1_554  S
C3697      F3712   1.380       .  S
C3699      F3707   1.383       .  S
C3699      F3708   1.382       .  S
C3699      F3709   1.385       .  S
C3713      C3714   1.401       .  A
C3713      C3718   1.399       .  A
C3713      H3723   1.084       .  S
C3714      C3719   1.466       .  S
C3714      C3715   1.410       .  A
C3715      C3716   1.403       .  A
C3715      C3720   1.517       .  S
C3716      C3717   1.402       .  A
C3716      H3721   1.083       .  S
C3717      C3718   1.411       .  A
C3718      C3722   1.517       .  S
C3719      C3724   1.416       .  A
C3719      C3728   1.397       .  A
C3720      F3736   1.382       .  S
C3720      F3737   1.383       .  S
C3720      F3738   1.384       .  S
C3722      F3733   1.382       .  S
C3722      F3734   1.385       .  S
C3722      F3735   1.383       .  S
C3724      C3725   1.400       .  A
C3724      C3729   1.520       .  S
C3725      C3726   1.403       .  A
C3725      H3730   1.084   1_455  S
C3726      C3727   1.417       .  A
C3727      C3728   1.397       .  A
C3727      C3731   1.516       .  S
C3728      H3732   1.085       .  S
C3729      F3742   1.383       .  S
C3729      F3743   1.382       .  S
C3729      F3744   1.381       .  S
C3731      F3739   1.383       .  S
C3731      F3740   1.382       .  S
C3731      F3741   1.383       .  S
C3745      C3746   1.410       .  A
C3745      C3750   1.425       .  A
C3745      H3755   1.083       .  S
C3746      C3751   1.531       .  S
C3746      C3747   1.423       .  A
C3747      C3748   1.429       .  A
C3747      C3752   1.519       .  S
C3748      C3749   1.413       .  A
C3748      H3753   1.083       .  S
C3749      C3750   1.423       .  A
C3750      C3754   1.516       .  S
C3751      C3756   1.423       .  A
C3751      C3760   1.417       .  A
C3752      F3768   1.382       .  S
C3752      F3769   1.381       .  S
C3752      F3770   1.384       .  S
C3754      F3765   1.385       .  S
C3754      F3766   1.383       .  S
C3754      F3767   1.383       .  S
C3756      C3757   1.419       .  A
C3756      C3761   1.519       .  S
C3757      C3758   1.409       .  A
C3757      H3762   1.083       .  S
C3758      C3759   1.417       .  A
C3759      C3760   1.429       .  A
C3759      C3763   1.516       .  S
C3760      H3764   1.082       .  S
C3761      F3774   1.385       .  S
C3761      F3775   1.381       .  S
C3761      F3776   1.380       .  S
C3763      F3771   1.384       .  S
C3763      F3772   1.384       .  S
C3763      F3773   1.384       .  S
C3777      C3778   1.408   1_655  A
C3777      C3782   1.417       .  A
C3777      H3787   1.083       .  S
C3778      C3783   1.511       .  S
C3778      C3779   1.422       .  A
C3779      C3780   1.416   1_455  A
C3779      C3784   1.518       .  S
C3780      C3781   1.404       .  A
C3780      H3785   1.083   1_655  S
C3781      C3782   1.417       .  A
C3782      C3786   1.517       .  S
C3783      C3788   1.419       .  A
C3783      C3792   1.410       .  A
C3784      F3800   1.382       .  S
C3784      F3801   1.382       .  S
C3784      F3802   1.384       .  S
C3786      F3797   1.383       .  S
C3786      F3798   1.384       .  S
C3786      F3799   1.383       .  S
C3788      C3789   1.414       .  A
C3788      C3793   1.521       .  S
C3789      C3790   1.408       .  A
C3789      H3794   1.082       .  S
C3790      C3791   1.418       .  A
C3791      C3792   1.422       .  A
C3791      C3795   1.514       .  S
C3792      H3796   1.083       .  S
C3793      F3806   1.383       .  S
C3793      F3807   1.382   1_455  S
C3793      F3808   1.383       .  S
C3795      F3803   1.384       .  S
C3795      F3804   1.382       .  S
C3795      F3805   1.384       .  S
C3809      C3810   1.399       .  A
C3809      C3814   1.405   1_556  A
C3809      H3819   1.084       .  S
C3810      C3815   1.500       .  S
C3810      C3811   1.422   1_556  A
C3811      C3812   1.419       .  A
C3811      C3816   1.518       .  S
C3812      C3813   1.407       .  A
C3812      H3817   1.083       .  S
C3813      C3814   1.422       .  A
C3814      C3818   1.517   1_554  S
C3815      C3820   1.417       .  A
C3815      C3824   1.412       .  A
C3816      F3832   1.382       .  S
C3816      F3833   1.383       .  S
C3816      F3834   1.384       .  S
C3818      F3829   1.385       .  S
C3818      F3830   1.382       .  S
C3818      F3831   1.384   1_556  S
C3820      C3821   1.408       .  A
C3820      C3825   1.523       .  S
C3821      C3822   1.408       .  A
C3821      H3826   1.083       .  S
C3822      C3823   1.411       .  A
C3823      C3824   1.418       .  A
C3823      C3827   1.512       .  S
C3824      H3828   1.083   1_556  S
C3825      F3838   1.385       .  S
C3825      F3839   1.382       .  S
C3825      F3840   1.382       .  S
C3827      F3835   1.384       .  S
C3827      F3836   1.383       .  S
C3827      F3837   1.382       .  S
C3841      C3842   1.404       .  A
C3841      C3846   1.410       .  A
C3841      H3851   1.083       .  S
C3842      C3847   1.500   1_554  S
C3842      C3843   1.419       .  A
C3843      C3844   1.413       .  A
C3843      C3848   1.519   1_554  S
C3844      C3845   1.409       .  A
C3844      H3849   1.083       .  S
C3845      C3846   1.418       .  A
C3846      C3850   1.515       .  S
C3847      C3852   1.418       .  A
C3847      C3856   1.402       .  A
C3848      F3864   1.382       .  S
C3848      F3865   1.383       .  S
C3848      F3866   1.385       .  S
C3850      F3861   1.385       .  S
C3850      F3862   1.382       .  S
C3850      F3863   1.384       .  S
C3852      C3853   1.414       .  A
C3852      C3857   1.519       .  S
C3853      C3854   1.409       .  A
C3853      H3858   1.083       .  S
C3854      C3855   1.426       .  A
C3855      C3856   1.411       .  A
C3855      C3859   1.520       .  S
C3856      H3860   1.083       .  S
C3857      F3870   1.384       .  S
C3857      F3871   1.381   1_556  S
C3857      F3872   1.383   1_556  S
C3859      F3867   1.383       .  S
C3859      F3868   1.383       .  S
C3859      F3869   1.385       .  S
C3873      C3874   1.402       .  A
C3873      C3878   1.412       .  A
C3873      H3883   1.083       .  S
C3874      C3879   1.512       .  S
C3874      C3875   1.424       .  A
C3875      C3876   1.420       .  A
C3875      C3880   1.518       .  S
C3876      C3877   1.408       .  A
C3876      H3881   1.083       .  S
C3877      C3878   1.425       .  A
C3878      C3882   1.516       .  S
C3879      C3884   1.422       .  A
C3879      C3888   1.398       .  A
C3880      F3896   1.381       .  S
C3880      F3897   1.382       .  S
C3880      F3898   1.385       .  S
C3882      F3893   1.384       .  S
C3882      F3894   1.385       .  S
C3882      F3895   1.381       .  S
C3884      C3885   1.424       .  A
C3884      C3889   1.518       .  S
C3885      C3886   1.413       .  A
C3885      H3890   1.082       .  S
C3886      C3887   1.434       .  A
C3887      C3888   1.412       .  A
C3887      C3891   1.519       .  S
C3888      H3892   1.083       .  S
C3889      F3902   1.385       .  S
C3889      F3903   1.382       .  S
C3889      F3904   1.383       .  S
C3891      F3899   1.386       .  S
C3891      F3900   1.383       .  S
C3891      F3901   1.383       .  S
C3905      C3906   1.395       .  A
C3905      C3910   1.395       .  A
C3905      H3915   1.085       .  S
C3906      C3911   1.466       .  S
C3906      C3907   1.415       .  A
C3907      C3908   1.401       .  A
C3907      C3912   1.517       .  S
C3908      C3909   1.400       .  A
C3908      H3913   1.083       .  S
C3909      C3910   1.417       .  A
C3910      C3914   1.515       .  S
C3911      C3916   1.417       .  A
C3911      C3920   1.396       .  A
C3912      F3928   1.382       .  S
C3912      F3929   1.382       .  S
C3912      F3930   1.385       .  S
C3914      F3925   1.382       .  S
C3914      F3926   1.384       .  S
C3914      F3927   1.383       .  S
C3916      C3917   1.401       .  A
C3916      C3921   1.521       .  S
C3917      C3918   1.397       .  A
C3917      H3922   1.084       .  S
C3918      C3919   1.415       .  A
C3919      C3920   1.399       .  A
C3919      C3923   1.516       .  S
C3920      H3924   1.083       .  S
C3921      F3934   1.385       .  S
C3921      F3935   1.382       .  S
C3921      F3936   1.382       .  S
C3923      F3931   1.385       .  S
C3923      F3932   1.383       .  S
C3923      F3933   1.379       .  S
C3937      C3938   1.401       .  A
C3937      C3942   1.401       .  A
C3937      H3947   1.084       .  S
C3938      C3943   1.471       .  S
C3938      C3939   1.409       .  A
C3939      C3940   1.400       .  A
C3939      C3944   1.516       .  S
C3940      C3941   1.405       .  A
C3940      H3945   1.084       .  S
C3941      C3942   1.413       .  A
C3942      C3946   1.515       .  S
C3943      C3948   1.422       .  A
C3943      C3952   1.398       .  A
C3944      F3960   1.385       .  S
C3944      F3961   1.383       .  S
C3944      F3962   1.382       .  S
C3946      F3957   1.385       .  S
C3946      F3958   1.383       .  S
C3946      F3959   1.381       .  S
C3948      C3949   1.399       .  A
C3948      C3953   1.523       .  S
C3949      C3950   1.395       .  A
C3949      H3954   1.084       .  S
C3950      C3951   1.415       .  A
C3951      C3952   1.405       .  A
C3951      C3955   1.515       .  S
C3952      H3956   1.083       .  S
C3953      F3966   1.385       .  S
C3953      F3967   1.382       .  S
C3953      F3968   1.382       .  S
C3955      F3963   1.383       .  S
C3955      F3964   1.382       .  S
C3955      F3965   1.385       .  S
C3969      C3970   1.406       .  A
C3969      C3974   1.421       .  A
C3969      H3979   1.083       .  S
C3970      C3975   1.505       .  S
C3970      C3971   1.412       .  A
C3971      C3972   1.412       .  A
C3971      C3976   1.522       .  S
C3972      C3973   1.419       .  A
C3972      H3977   1.080       .  S
C3973      C3974   1.426       .  A
C3974      C3978   1.515       .  S
C3975      C3980   1.416       .  A
C3975      C3984   1.412       .  A
C3976      F3992   1.383       .  S
C3976      F3993   1.383       .  S
C3976      F3994   1.384       .  S
C3978      F3989   1.385       .  S
C3978      F3990   1.382       .  S
C3978      F3991   1.383       .  S
C3980      C3981   1.409       .  A
C3980      C3985   1.520       .  S
C3981      C3982   1.405       .  A
C3981      H3986   1.082       .  S
C3982      C3983   1.416       .  A
C3983      C3984   1.422       .  A
C3983      C3987   1.516       .  S
C3984      H3988   1.083       .  S
C3985      F3998   1.384       .  S
C3985      F3999   1.383       .  S
C3985      F4000   1.382       .  S
C3987      F3995   1.384       .  S
C3987      F3996   1.383       .  S
C3987      F3997   1.384       .  S
C4001      C4002   1.403       .  A
C4001      C4006   1.410       .  A
C4001      H4011   1.083       .  S
C4002      C4007   1.502       .  S
C4002      C4003   1.420       .  A
C4003      C4004   1.415       .  A
C4003      C4008   1.518       .  S
C4004      C4005   1.407       .  A
C4004      H4009   1.083       .  S
C4005      C4006   1.423       .  A
C4006      C4010   1.519       .  S
C4007      C4012   1.417       .  A
C4007      C4016   1.405       .  A
C4008      F4024   1.381       .  S
C4008      F4025   1.382       .  S
C4008      F4026   1.385       .  S
C4010      F4021   1.384       .  S
C4010      F4022   1.385       .  S
C4010      F4023   1.382       .  S
C4012      C4013   1.410       .  A
C4012      C4017   1.517       .  S
C4013      C4014   1.410       .  A
C4013      H4018   1.083       .  S
C4014      C4015   1.426       .  A
C4015      C4016   1.414       .  A
C4015      C4019   1.520       .  S
C4016      H4020   1.083       .  S
C4017      F4030   1.385       .  S
C4017      F4031   1.382       .  S
C4017      F4032   1.383       .  S
C4019      F4027   1.382       .  S
C4019      F4028   1.384       .  S
C4019      F4029   1.385       .  S
C4033      C4034   1.409       .  A
C4033      C4038   1.427   1_455  A
C4033      H4043   1.082       .  S
C4034      C4039   1.513       .  S
C4034      C4035   1.415       .  A
C4035      C4036   1.411   1_455  A
C4035      C4040   1.523       .  S
C4036      C4037   1.418       .  A
C4036      H4041   1.081       .  S
C4037      C4038   1.429       .  A
C4038      C4042   1.516       .  S
C4039      C4044   1.418       .  A
C4039      C4048   1.409       .  A
C4040      F4056   1.382       .  S
C4040      F4057   1.383       .  S
C4040      F4058   1.384       .  S
C4042      F4053   1.383       .  S
C4042      F4054   1.382       .  S
C4042      F4055   1.385       .  S
C4044      C4045   1.415       .  A
C4044      C4049   1.518       .  S
C4045      C4046   1.409       .  A
C4045      H4050   1.083       .  S
C4046      C4047   1.422       .  A
C4047      C4048   1.421       .  A
C4047      C4051   1.517       .  S
C4048      H4052   1.083       .  S
C4049      F4062   1.384       .  S
C4049      F4063   1.382   1_455  S
C4049      F4064   1.382   1_455  S
C4051      F4059   1.384       .  S
C4051      F4060   1.382       .  S
C4051      F4061   1.384       .  S
C4065      C4066   1.400       .  A
C4065      C4070   1.392       .  A
C4065      H4075   1.085       .  S
C4066      C4071   1.465       .  S
C4066      C4067   1.411       .  A
C4067      C4068   1.406       .  A
C4067      C4072   1.518       .  S
C4068      C4069   1.405       .  A
C4068      H4073   1.084       .  S
C4069      C4070   1.410       .  A
C4070      C4074   1.520       .  S
C4071      C4076   1.415   1_655  A
C4071      C4080   1.398       .  A
C4072      F4088   1.382       .  S
C4072      F4089   1.382       .  S
C4072      F4090   1.384       .  S
C4074      F4085   1.382       .  S
C4074      F4086   1.384       .  S
C4074      F4087   1.383       .  S
C4076      C4077   1.400       .  A
C4076      C4081   1.517       .  S
C4077      C4078   1.400       .  A
C4077      H4082   1.084       .  S
C4078      C4079   1.416   1_455  A
C4079      C4080   1.396       .  A
C4079      C4083   1.517       .  S
C4080      H4084   1.084       .  S
C4081      F4094   1.385       .  S
C4081      F4095   1.382       .  S
C4081      F4096   1.381   1_455  S
C4083      F4091   1.383       .  S
C4083      F4092   1.383   1_655  S
C4083      F4093   1.383       .  S
C4097      C4098   1.395       .  A
C4097      C4102   1.398       .  A
C4097      H4107   1.085       .  S
C4098      C4103   1.468       .  S
C4098      C4099   1.416       .  A
C4099      C4100   1.402       .  A
C4099      C4104   1.518       .  S
C4100      C4101   1.399       .  A
C4100      H4105   1.084       .  S
C4101      C4102   1.415       .  A
C4102      C4106   1.513       .  S
C4103      C4108   1.417       .  A
C4103      C4112   1.396       .  A
C4104      F4120   1.383       .  S
C4104      F4121   1.382       .  S
C4104      F4122   1.384       .  S
C4106      F4117   1.383       .  S
C4106      F4118   1.383       .  S
C4106      F4119   1.380       .  S
C4108      C4109   1.401       .  A
C4108      C4113   1.520       .  S
C4109      C4110   1.396       .  A
C4109      H4114   1.083       .  S
C4110      C4111   1.416       .  A
C4111      C4112   1.401       .  A
C4111      C4115   1.515       .  S
C4112      H4116   1.083       .  S
C4113      F4126   1.384       .  S
C4113      F4127   1.383       .  S
C4113      F4128   1.382       .  S
C4115      F4123   1.383       .  S
C4115      F4124   1.378       .  S
C4115      F4125   1.384       .  S
C4129      C4130   1.412       .  A
C4129      C4134   1.433       .  A
C4129      H4139   1.082       .  S
C4130      C4135   1.541       .  S
C4130      C4131   1.425       .  A
C4131      C4132   1.429       .  A
C4131      C4136   1.519       .  S
C4132      C4133   1.415       .  A
C4132      H4137   1.083       .  S
C4133      C4134   1.427       .  A
C4134      C4138   1.514       .  S
C4135      C4140   1.423       .  A
C4135      C4144   1.419       .  A
C4136      F4152   1.382       .  S
C4136      F4153   1.383       .  S
C4136      F4154   1.385       .  S
C4138      F4149   1.385       .  S
C4138      F4150   1.382       .  S
C4138      F4151   1.382       .  S
C4140      C4141   1.423       .  A
C4140      C4145   1.518       .  S
C4141      C4142   1.412       .  A
C4141      H4146   1.082       .  S
C4142      C4143   1.418       .  A
C4143      C4144   1.434       .  A
C4143      C4147   1.514       .  S
C4144      H4148   1.082       .  S
C4145      F4158   1.385       .  S
C4145      F4159   1.382       .  S
C4145      F4160   1.382       .  S
C4147      F4155   1.383       .  S
C4147      F4156   1.384       .  S
C4147      F4157   1.383       .  S
C4161      C4162   1.407       .  A
C4161      C4166   1.418       .  A
C4161      H4171   1.083       .  S
C4162      C4167   1.504       .  S
C4162      C4163   1.415       .  A
C4163      C4164   1.413       .  A
C4163      C4168   1.517       .  S
C4164      C4165   1.411       .  A
C4164      H4169   1.083       .  S
C4165      C4166   1.421       .  A
C4166      C4170   1.516       .  S
C4167      C4172   1.418       .  A
C4167      C4176   1.413       .  A
C4168      F4184   1.382       .  S
C4168      F4185   1.383       .  S
C4168      F4186   1.384       .  S
C4170      F4181   1.384       .  S
C4170      F4182   1.382       .  S
C4170      F4183   1.382       .  S
C4172      C4173   1.406       .  A
C4172      C4177   1.520       .  S
C4173      C4174   1.410       .  A
C4173      H4178   1.085       .  S
C4174      C4175   1.417       .  A
C4175      C4176   1.422       .  A
C4175      C4179   1.513       .  S
C4176      H4180   1.083       .  S
C4177      F4190   1.384       .  S
C4177      F4191   1.383       .  S
C4177      F4192   1.381       .  S
C4179      F4187   1.383       .  S
C4179      F4188   1.382       .  S
C4179      F4189   1.385       .  S
C4193      C4194   1.405       .  A
C4193      C4198   1.420       .  A
C4193      H4203   1.083       .  S
C4194      C4199   1.504       .  S
C4194      C4195   1.415       .  A
C4195      C4196   1.410       .  A
C4195      C4200   1.521       .  S
C4196      C4197   1.414       .  A
C4196      H4201   1.082       .  S
C4197      C4198   1.429       .  A
C4198      C4202   1.518       .  S
C4199      C4204   1.417       .  A
C4199      C4208   1.408       .  A
C4200      F4216   1.382       .  S
C4200      F4217   1.383       .  S
C4200      F4218   1.385       .  S
C4202      F4213   1.383       .  S
C4202      F4214   1.385       .  S
C4202      F4215   1.383       .  S
C4204      C4205   1.409       .  A
C4204      C4209   1.520       .  S
C4205      C4206   1.408       .  A
C4205      H4210   1.083       .  S
C4206      C4207   1.421       .  A
C4207      C4208   1.420       .  A
C4207      C4211   1.517       .  S
C4208      H4212   1.083       .  S
C4209      F4222   1.385       .  S
C4209      F4223   1.382       .  S
C4209      F4224   1.383       .  S
C4211      F4219   1.385       .  S
C4211      F4220   1.383       .  S
C4211      F4221   1.383       .  S
C4225      C4226   1.397       .  A
C4225      C4230   1.404       .  A
C4225      H4235   1.083       .  S
C4226      C4231   1.495       .  S
C4226      C4227   1.422   1_455  A
C4227      C4228   1.418       .  A
C4227      C4232   1.517       .  S
C4228      C4229   1.404       .  A
C4228      H4233   1.083       .  S
C4229      C4230   1.422   1_655  A
C4230      C4234   1.515       .  S
C4231      C4236   1.422       .  A
C4231      C4240   1.398       .  A
C4232      F4248   1.383       .  S
C4232      F4249   1.381       .  S
C4232      F4250   1.385       .  S
C4234      F4245   1.380   1_455  S
C4234      F4246   1.385       .  S
C4234      F4247   1.382   1_455  S
C4236      C4237   1.419       .  A
C4236      C4241   1.517       .  S
C4237      C4238   1.407       .  A
C4237      H4242   1.083       .  S
C4238      C4239   1.424       .  A
C4239      C4240   1.403       .  A
C4239      C4243   1.516       .  S
C4240      H4244   1.085       .  S
C4241      F4254   1.385       .  S
C4241      F4255   1.383       .  S
C4241      F4256   1.381       .  S
C4243      F4251   1.384       .  S
C4243      F4252   1.384       .  S
C4243      F4253   1.383       .  S
C4257      C4258   1.402       .  A
C4257      C4262   1.417       .  A
C4257      H4267   1.083       .  S
C4258      C4263   1.501       .  S
C4258      C4259   1.416       .  A
C4259      C4260   1.411       .  A
C4259      C4264   1.520       .  S
C4260      C4261   1.413       .  A
C4260      H4265   1.082       .  S
C4261      C4262   1.432       .  A
C4262      C4266   1.520       .  S
C4263      C4268   1.417       .  A
C4263      C4272   1.405       .  A
C4264      F4280   1.382       .  S
C4264      F4281   1.382       .  S
C4264      F4282   1.385       .  S
C4266      F4277   1.384       .  S
C4266      F4278   1.384       .  S
C4266      F4279   1.383       .  S
C4268      C4269   1.412       .  A
C4268      C4273   1.520       .  S
C4269      C4270   1.409       .  A
C4269      H4274   1.083       .  S
C4270      C4271   1.422       .  A
C4271      C4272   1.417       .  A
C4271      C4275   1.516       .  S
C4272      H4276   1.083       .  S
C4273      F4286   1.384       .  S
C4273      F4287   1.383       .  S
C4273      F4288   1.382       .  S
C4275      F4283   1.383       .  S
C4275      F4284   1.382       .  S
C4275      F4285   1.385       .  S
C4289      C4290   1.411       .  A
C4289      C4294   1.426       .  A
C4289      H4299   1.082       .  S
C4290      C4295   1.534       .  S
C4290      C4291   1.426       .  A
C4291      C4292   1.425       .  A
C4291      C4296   1.517       .  S
C4292      C4293   1.410       .  A
C4292      H4297   1.083       .  S
C4293      C4294   1.423       .  A
C4294      C4298   1.515       .  S
C4295      C4300   1.425       .  A
C4295      C4304   1.410       .  A
C4296      F4312   1.381       .  S
C4296      F4313   1.383       .  S
C4296      F4314   1.385       .  S
C4298      F4309   1.384       .  S
C4298      F4310   1.380       .  S
C4298      F4311   1.383       .  S
C4300      C4301   1.428       .  A
C4300      C4305   1.517       .  S
C4301      C4302   1.411       .  A
C4301      H4306   1.083       .  S
C4302      C4303   1.426       .  A
C4303      C4304   1.423       .  A
C4303      C4307   1.517       .  S
C4304      H4308   1.084       .  S
C4305      F4318   1.384       .  S
C4305      F4319   1.381       .  S
C4305      F4320   1.383       .  S
C4307      F4315   1.383       .  S
C4307      F4316   1.383       .  S
C4307      F4317   1.383       .  S
C4321      C4322   1.399       .  A
C4321      C4326   1.404       .  A
C4321      H4331   1.085       .  S
C4322      C4327   1.495       .  S
C4322      C4323   1.420       .  A
C4323      C4324   1.416       .  A
C4323      C4328   1.519       .  S
C4324      C4325   1.406       .  A
C4324      H4329   1.083       .  S
C4325      C4326   1.427       .  A
C4326      C4330   1.519       .  S
C4327      C4332   1.420       .  A
C4327      C4336   1.400       .  A
C4328      F4344   1.382       .  S
C4328      F4345   1.379       .  S
C4328      F4346   1.385       .  S
C4330      F4341   1.384       .  S
C4330      F4342   1.384       .  S
C4330      F4343   1.382       .  S
C4332      C4333   1.416       .  A
C4332      C4337   1.522       .  S
C4333      C4334   1.406       .  A
C4333      H4338   1.083       .  S
C4334      C4335   1.421       .  A
C4335      C4336   1.409       .  A
C4335      C4339   1.513       .  S
C4336      H4340   1.083       .  S
C4337      F4350   1.385       .  S
C4337      F4351   1.382       .  S
C4337      F4352   1.380       .  S
C4339      F4347   1.386       .  S
C4339      F4348   1.380       .  S
C4339      F4349   1.381       .  S
C4353      C4354   1.400   1_565  A
C4353      C4358   1.403       .  A
C4353      H4363   1.085       .  S
C4354      C4359   1.493       .  S
C4354      C4355   1.418       .  A
C4355      C4356   1.416   1_545  A
C4355      C4360   1.517       .  S
C4356      C4357   1.406       .  A
C4356      H4361   1.083       .  S
C4357      C4358   1.422       .  A
C4358      C4362   1.519       .  S
C4359      C4364   1.419       .  A
C4359      C4368   1.405       .  A
C4360      F4376   1.381       .  S
C4360      F4377   1.382       .  S
C4360      F4378   1.384       .  S
C4362      F4373   1.385       .  S
C4362      F4374   1.381       .  S
C4362      F4375   1.381       .  S
C4364      C4365   1.410       .  A
C4364      C4369   1.518   1_545  S
C4365      C4366   1.401       .  A
C4365      H4370   1.083       .  S
C4366      C4367   1.415       .  A
C4367      C4368   1.409       .  A
C4367      C4371   1.519       .  S
C4368      H4372   1.083       .  S
C4369      F4382   1.384       .  S
C4369      F4383   1.382       .  S
C4369      F4384   1.382       .  S
C4371      F4379   1.382       .  S
C4371      F4380   1.384       .  S
C4371      F4381   1.384       .  S
C4385      C4386   1.398       .  A
C4385      C4390   1.406       .  A
C4385      H4395   1.083       .  S
C4386      C4391   1.468       .  S
C4386      C4387   1.417       .  A
C4387      C4388   1.394       .  A
C4387      C4392   1.523       .  S
C4388      C4389   1.398       .  A
C4388      H4393   1.084       .  S
C4389      C4390   1.420       .  A
C4390      C4394   1.517       .  S
C4391      C4396   1.407       .  A
C4391      C4400   1.398       .  A
C4392      F4408   1.381       .  S
C4392      F4409   1.382       .  S
C4392      F4410   1.385       .  S
C4394      F4405   1.385       .  S
C4394      F4406   1.382       .  S
C4394      F4407   1.381       .  S
C4396      C4397   1.399       .  A
C4396      C4401   1.519       .  S
C4397      C4398   1.411       .  A
C4397      H4402   1.083       .  S
C4398      C4399   1.425       .  A
C4399      C4400   1.403       .  A
C4399      C4403   1.519       .  S
C4400      H4404   1.084       .  S
C4401      F4414   1.385       .  S
C4401      F4415   1.382       .  S
C4401      F4416   1.383       .  S
C4403      F4411   1.385       .  S
C4403      F4412   1.383       .  S
C4403      F4413   1.383       .  S
C4417      C4418   1.404       .  A
C4417      C4422   1.415       .  A
C4417      H4427   1.083   1_545  S
C4418      C4423   1.498       .  S
C4418      C4419   1.415       .  A
C4419      C4420   1.411       .  A
C4419      C4424   1.519       .  S
C4420      C4421   1.411       .  A
C4420      H4425   1.083       .  S
C4421      C4422   1.423       .  A
C4422      C4426   1.516   1_545  S
C4423      C4428   1.413   1_545  A
C4423      C4432   1.412       .  A
C4424      F4440   1.382       .  S
C4424      F4441   1.382       .  S
C4424      F4442   1.385       .  S
C4426      F4437   1.385       .  S
C4426      F4438   1.382   1_565  S
C4426      F4439   1.382       .  S
C4428      C4429   1.406       .  A
C4428      C4433   1.522       .  S
C4429      C4430   1.411   1_565  A
C4429      H4434   1.082       .  S
C4430      C4431   1.415       .  A
C4431      C4432   1.420       .  A
C4431      C4435   1.514       .  S
C4432      H4436   1.083       .  S
C4433      F4446   1.385       .  S
C4433      F4447   1.382       .  S
C4433      F4448   1.381       .  S
C4435      F4443   1.383       .  S
C4435      F4444   1.382       .  S
C4435      F4445   1.384       .  S
C4449      C4450   1.404       .  A
C4449      C4454   1.406       .  A
C4449      H4459   1.083       .  S
C4450      C4455   1.493       .  S
C4450      C4451   1.421       .  A
C4451      C4452   1.410       .  A
C4451      C4456   1.516       .  S
C4452      C4453   1.401       .  A
C4452      H4457   1.084       .  S
C4453      C4454   1.415       .  A
C4454      C4458   1.519       .  S
C4455      C4460   1.417       .  A
C4455      C4464   1.399       .  A
C4456      F4472   1.382       .  S
C4456      F4473   1.382       .  S
C4456      F4474   1.385       .  S
C4458      F4469   1.384       .  S
C4458      F4470   1.382       .  S
C4458      F4471   1.383       .  S
C4460      C4461   1.415       .  A
C4460      C4465   1.517       .  S
C4461      C4462   1.407       .  A
C4461      H4466   1.083       .  S
C4462      C4463   1.428       .  A
C4463      C4464   1.408       .  A
C4463      C4467   1.520       .  S
C4464      H4468   1.083       .  S
C4465      F4478   1.383   1_545  S
C4465      F4479   1.382       .  S
C4465      F4480   1.384   1_545  S
C4467      F4475   1.381       .  S
C4467      F4476   1.384       .  S
C4467      F4477   1.384       .  S
C4481      C4482   1.407       .  A
C4481      C4486   1.399       .  A
C4481      H4491   1.083       .  S
C4482      C4487   1.472       .  S
C4482      C4483   1.414       .  A
C4483      C4484   1.400       .  A
C4483      C4488   1.516       .  S
C4484      C4485   1.400       .  A
C4484      H4489   1.085       .  S
C4485      C4486   1.407       .  A
C4486      C4490   1.518       .  S
C4487      C4492   1.411       .  A
C4487      C4496   1.405       .  A
C4488      F4504   1.380       .  S
C4488      F4505   1.382       .  S
C4488      F4506   1.383       .  S
C4490      F4501   1.384       .  S
C4490      F4502   1.383       .  S
C4490      F4503   1.383       .  S
C4492      C4493   1.394       .  A
C4492      C4497   1.517       .  S
C4493      C4494   1.406       .  A
C4493      H4498   1.085       .  S
C4494      C4495   1.416       .  A
C4495      C4496   1.406       .  A
C4495      C4499   1.515       .  S
C4496      H4500   1.083       .  S
C4497      F4510   1.383       .  S
C4497      F4511   1.384       .  S
C4497      F4512   1.383       .  S
C4499      F4507   1.385       .  S
C4499      F4508   1.378       .  S
C4499      F4509   1.383       .  S
C4513      C4514   1.415       .  A
C4513      C4518   1.430       .  A
C4513      H4523   1.083       .  S
C4514      C4519   1.530       .  S
C4514      C4515   1.421       .  A
C4515      C4516   1.422       .  A
C4515      C4520   1.520       .  S
C4516      C4517   1.414       .  A
C4516      H4521   1.083       .  S
C4517      C4518   1.422       .  A
C4518      C4522   1.514       .  S
C4519      C4524   1.423       .  A
C4519      C4528   1.413       .  A
C4520      F4536   1.382       .  S
C4520      F4537   1.381       .  S
C4520      F4538   1.384       .  S
C4522      F4533   1.384       .  S
C4522      F4534   1.384       .  S
C4522      F4535   1.383       .  S
C4524      C4525   1.422       .  A
C4524      C4529   1.517       .  S
C4525      C4526   1.410       .  A
C4525      H4530   1.083       .  S
C4526      C4527   1.420       .  A
C4527      C4528   1.426       .  A
C4527      C4531   1.515       .  S
C4528      H4532   1.083       .  S
C4529      F4542   1.386       .  S
C4529      F4543   1.382       .  S
C4529      F4544   1.381       .  S
C4531      F4539   1.383   1_565  S
C4531      F4540   1.383       .  S
C4531      F4541   1.384       .  S
C4545      C4546   1.398       .  A
C4545      C4550   1.403       .  A
C4545      H4555   1.085       .  S
C4546      C4551   1.494       .  S
C4546      C4547   1.420       .  A
C4547      C4548   1.417       .  A
C4547      C4552   1.518       .  S
C4548      C4549   1.407       .  A
C4548      H4553   1.083       .  S
C4549      C4550   1.421       .  A
C4550      C4554   1.516       .  S
C4551      C4556   1.421       .  A
C4551      C4560   1.396       .  A
C4552      F4568   1.383       .  S
C4552      F4569   1.381       .  S
C4552      F4570   1.385       .  S
C4554      F4565   1.383       .  S
C4554      F4566   1.384       .  S
C4554      F4567   1.383       .  S
C4556      C4557   1.418       .  A
C4556      C4561   1.518       .  S
C4557      C4558   1.405       .  A
C4557      H4562   1.083       .  S
C4558      C4559   1.421       .  A
C4559      C4560   1.406       .  A
C4559      C4563   1.513       .  S
C4560      H4564   1.083       .  S
C4561      F4574   1.384       .  S
C4561      F4575   1.383       .  S
C4561      F4576   1.381       .  S
C4563      F4571   1.385       .  S
C4563      F4572   1.380       .  S
C4563      F4573   1.380       .  S
C4577      C4578   1.406       .  A
C4577      C4582   1.421       .  A
C4577      H4587   1.083       .  S
C4578      C4583   1.498       .  S
C4578      C4579   1.414       .  A
C4579      C4580   1.405       .  A
C4579      C4584   1.522       .  S
C4580      C4581   1.414       .  A
C4580      H4585   1.082       .  S
C4581      C4582   1.427       .  A
C4582      C4586   1.517       .  S
C4583      C4588   1.417       .  A
C4583      C4592   1.402       .  A
C4584      F4600   1.383       .  S
C4584      F4601   1.382       .  S
C4584      F4602   1.385       .  S
C4586      F4597   1.383       .  S
C4586      F4598   1.384       .  S
C4586      F4599   1.384       .  S
C4588      C4589   1.416       .  A
C4588      C4593   1.518       .  S
C4589      C4590   1.410       .  A
C4589      H4594   1.083       .  S
C4590      C4591   1.421       .  A
C4591      C4592   1.411       .  A
C4591      C4595   1.515       .  S
C4592      H4596   1.083       .  S
C4593      F4606   1.385       .  S
C4593      F4607   1.383       .  S
C4593      F4608   1.383       .  S
C4595      F4603   1.385       .  S
C4595      F4604   1.384       .  S
C4595      F4605   1.382       .  S
C4609      C4610   1.406       .  A
C4609      C4614   1.419       .  A
C4609      H4619   1.083       .  S
C4610      C4615   1.500       .  S
C4610      C4611   1.416       .  A
C4611      C4612   1.408       .  A
C4611      C4616   1.522       .  S
C4612      C4613   1.412       .  A
C4612      H4617   1.083       .  S
C4613      C4614   1.422       .  A
C4614      C4618   1.514       .  S
C4615      C4620   1.420   1_455  A
C4615      C4624   1.403       .  A
C4616      F4632   1.382       .  S
C4616      F4633   1.383       .  S
C4616      F4634   1.385       .  S
C4618      F4629   1.385       .  S
C4618      F4630   1.382       .  S
C4618      F4631   1.383       .  S
C4620      C4621   1.414       .  A
C4620      C4625   1.518       .  S
C4621      C4622   1.404       .  A
C4621      H4626   1.083       .  S
C4622      C4623   1.417       .  A
C4623      C4624   1.411   1_655  A
C4623      C4627   1.517       .  S
C4624      H4628   1.083       .  S
C4625      F4638   1.384       .  S
C4625      F4639   1.383       .  S
C4625      F4640   1.383       .  S
C4627      F4635   1.384   1_655  S
C4627      F4636   1.383       .  S
C4627      F4637   1.382       .  S
C4641      C4642   1.405       .  A
C4641      C4646   1.403       .  A
C4641      H4651   1.084       .  S
C4642      C4647   1.467       .  S
C4642      C4643   1.411       .  A
C4643      C4644   1.394       .  A
C4643      C4648   1.517       .  S
C4644      C4645   1.400       .  A
C4644      H4649   1.085       .  S
C4645      C4646   1.410       .  A
C4646      C4650   1.516   1_455  S
C4647      C4652   1.407       .  A
C4647      C4656   1.404       .  A
C4648      F4664   1.383       .  S
C4648      F4665   1.382       .  S
C4648      F4666   1.384       .  S
C4650      F4661   1.385       .  S
C4650      F4662   1.380       .  S
C4650      F4663   1.383       .  S
C4652      C4653   1.399       .  A
C4652      C4657   1.514       .  S
C4653      C4654   1.403       .  A
C4653      H4658   1.084       .  S
C4654      C4655   1.411       .  A
C4655      C4656   1.402       .  A
C4655      C4659   1.518       .  S
C4656      H4660   1.084       .  S
C4657      F4670   1.384       .  S
C4657      F4671   1.382       .  S
C4657      F4672   1.383       .  S
C4659      F4667   1.383       .  S
C4659      F4668   1.383       .  S
C4659      F4669   1.385       .  S
C4673      C4674   1.413       .  A
C4673      C4678   1.421       .  A
C4673      H4683   1.083       .  S
C4674      C4679   1.504       .  S
C4674      C4675   1.415       .  A
C4675      C4676   1.407       .  A
C4675      C4680   1.522       .  S
C4676      C4677   1.411       .  A
C4676      H4681   1.080       .  S
C4677      C4678   1.415       .  A
C4678      C4682   1.514       .  S
C4679      C4684   1.418       .  A
C4679      C4688   1.407       .  A
C4680      F4696   1.382       .  S
C4680      F4697   1.383       .  S
C4680      F4698   1.385       .  S
C4682      F4693   1.382       .  S
C4682      F4694   1.384       .  S
C4682      F4695   1.383       .  S
C4684      C4685   1.411       .  A
C4684      C4689   1.519       .  S
C4685      C4686   1.409       .  A
C4685      H4690   1.083       .  S
C4686      C4687   1.420       .  A
C4687      C4688   1.415       .  A
C4687      C4691   1.516       .  S
C4688      H4692   1.083       .  S
C4689      F4702   1.385       .  S
C4689      F4703   1.381       .  S
C4689      F4704   1.382       .  S
C4691      F4699   1.381       .  S
C4691      F4700   1.382       .  S
C4691      F4701   1.385       .  S
C4705      C4706   1.400       .  A
C4705      C4710   1.405       .  A
C4705      H4715   1.085       .  S
C4706      C4711   1.495       .  S
C4706      C4707   1.418       .  A
C4707      C4708   1.416       .  A
C4707      C4712   1.517       .  S
C4708      C4709   1.408       .  A
C4708      H4713   1.083       .  S
C4709      C4710   1.420       .  A
C4710      C4714   1.518       .  S
C4711      C4716   1.414       .  A
C4711      C4720   1.401       .  A
C4712      F4728   1.383       .  S
C4712      F4729   1.382       .  S
C4712      F4730   1.384       .  S
C4714      F4725   1.383       .  S
C4714      F4726   1.382       .  S
C4714      F4727   1.383       .  S
C4716      C4717   1.409       .  A
C4716      C4721   1.522       .  S
C4717      C4718   1.413       .  A
C4717      H4722   1.081       .  S
C4718      C4719   1.432       .  A
C4719      C4720   1.416       .  A
C4719      C4723   1.520       .  S
C4720      H4724   1.083       .  S
C4721      F4734   1.384       .  S
C4721      F4735   1.382       .  S
C4721      F4736   1.382       .  S
C4723      F4731   1.383       .  S
C4723      F4732   1.384       .  S
C4723      F4733   1.384       .  S
C4737      C4738   1.402       .  A
C4737      C4742   1.413       .  A
C4737      H4747   1.084       .  S
C4738      C4743   1.511       .  S
C4738      C4739   1.421       .  A
C4739      C4740   1.422       .  A
C4739      C4744   1.518       .  S
C4740      C4741   1.410       .  A
C4740      H4745   1.083       .  S
C4741      C4742   1.426       .  A
C4742      C4746   1.519       .  S
C4743      C4748   1.416       .  A
C4743      C4752   1.409       .  A
C4744      F4760   1.382       .  S
C4744      F4761   1.382       .  S
C4744      F4762   1.384       .  S
C4746      F4757   1.384       .  S
C4746      F4758   1.382       .  S
C4746      F4759   1.383       .  S
C4748      C4749   1.413       .  A
C4748      C4753   1.523       .  S
C4749      C4750   1.417       .  A
C4749      H4754   1.082       .  S
C4750      C4751   1.426       .  A
C4751      C4752   1.425       .  A
C4751      C4755   1.515       .  S
C4752      H4756   1.083       .  S
C4753      F4766   1.384       .  S
C4753      F4767   1.382       .  S
C4753      F4768   1.381       .  S
C4755      F4763   1.384       .  S
C4755      F4764   1.382       .  S
C4755      F4765   1.383       .  S
C4769      C4770   1.400       .  A
C4769      C4774   1.399       .  A
C4769      H4779   1.084       .  S
C4770      C4775   1.465       .  S
C4770      C4771   1.410       .  A
C4771      C4772   1.400       .  A
C4771      C4776   1.519       .  S
C4772      C4773   1.402       .  A
C4772      H4777   1.081       .  S
C4773      C4774   1.412       .  A
C4774      C4778   1.518       .  S
C4775      C4780   1.419       .  A
C4775      C4784   1.397       .  A
C4776      F4792   1.382       .  S
C4776      F4793   1.383       .  S
C4776      F4794   1.384       .  S
C4778      F4789   1.385       .  S
C4778      F4790   1.383       .  S
C4778      F4791   1.383       .  S
C4780      C4781   1.399       .  A
C4780      C4785   1.523       .  S
C4781      C4782   1.397       .  A
C4781      H4786   1.084       .  S
C4782      C4783   1.411       .  A
C4783      C4784   1.398       .  A
C4783      C4787   1.513       .  S
C4784      H4788   1.083       .  S
C4785      F4798   1.383       .  S
C4785      F4799   1.382       .  S
C4785      F4800   1.383       .  S
C4787      F4795   1.383       .  S
C4787      F4796   1.381       .  S
C4787      F4797   1.384       .  S
C4801      C4802   1.405       .  A
C4801      C4806   1.417       .  A
C4801      H4811   1.084       .  S
C4802      C4807   1.519       .  S
C4802      C4803   1.423       .  A
C4803      C4804   1.422       .  A
C4803      C4808   1.516       .  S
C4804      C4805   1.406       .  A
C4804      H4809   1.083       .  S
C4805      C4806   1.425       .  A
C4806      C4810   1.515       .  S
C4807      C4812   1.421       .  A
C4807      C4816   1.407       .  A
C4808      F4824   1.383       .  S
C4808      F4825   1.382       .  S
C4808      F4826   1.384       .  S
C4810      F4821   1.382       .  S
C4810      F4822   1.384       .  S
C4810      F4823   1.383       .  S
C4812      C4813   1.422       .  A
C4812      C4817   1.519       .  S
C4813      C4814   1.411       .  A
C4813      H4818   1.083       .  S
C4814      C4815   1.420       .  A
C4815      C4816   1.422       .  A
C4815      C4819   1.513       .  S
C4816      H4820   1.083       .  S
C4817      F4830   1.384       .  S
C4817      F4831   1.383       .  S
C4817      F4832   1.382       .  S
C4819      F4827   1.384       .  S
C4819      F4828   1.383       .  S
C4819      F4829   1.382       .  S
C4833      C4834   1.403       .  A
C4833      C4838   1.414       .  A
C4833      H4843   1.083       .  S
C4834      C4839   1.492       .  S
C4834      C4835   1.410       .  A
C4835      C4836   1.407       .  A
C4835      C4840   1.522       .  S
C4836      C4837   1.416       .  A
C4836      H4841   1.080       .  S
C4837      C4838   1.427       .  A
C4838      C4842   1.518       .  S
C4839      C4844   1.415       .  A
C4839      C4848   1.407       .  A
C4840      F4856   1.382       .  S
C4840      F4857   1.381       .  S
C4840      F4858   1.384       .  S
C4842      F4853   1.385       .  S
C4842      F4854   1.383       .  S
C4842      F4855   1.383       .  S
C4844      C4845   1.407       .  A
C4844      C4849   1.520       .  S
C4845      C4846   1.406       .  A
C4845      H4850   1.083       .  S
C4846      C4847   1.413       .  A
C4847      C4848   1.413       .  A
C4847      C4851   1.514       .  S
C4848      H4852   1.083       .  S
C4849      F4862   1.384       .  S
C4849      F4863   1.383       .  S
C4849      F4864   1.382       .  S
C4851      F4859   1.385       .  S
C4851      F4860   1.383       .  S
C4851      F4861   1.383       .  S
C4865      C4866   1.409   1_565  A
C4865      C4870   1.422       .  A
C4865      H4875   1.082       .  S
C4866      C4871   1.506       .  S
C4866      C4867   1.416       .  A
C4867      C4868   1.408   1_545  A
C4867      C4872   1.522       .  S
C4868      C4869   1.410       .  A
C4868      H4873   1.083       .  S
C4869      C4870   1.424       .  A
C4870      C4874   1.519       .  S
C4871      C4876   1.417       .  A
C4871      C4880   1.407       .  A
C4872      F4888   1.382       .  S
C4872      F4889   1.383       .  S
C4872      F4890   1.384       .  S
C4874      F4885   1.384       .  S
C4874      F4886   1.384       .  S
C4874      F4887   1.382       .  S
C4876      C4877   1.411       .  A
C4876      C4881   1.520   1_545  S
C4877      C4878   1.410       .  A
C4877      H4882   1.083       .  S
C4878      C4879   1.426       .  A
C4879      C4880   1.420       .  A
C4879      C4883   1.518       .  S
C4880      H4884   1.083       .  S
C4881      F4894   1.384       .  S
C4881      F4895   1.382       .  S
C4881      F4896   1.383       .  S
C4883      F4891   1.385       .  S
C4883      F4892   1.383       .  S
C4883      F4893   1.383       .  S
C4897      C4898   1.410       .  A
C4897      C4902   1.427       .  A
C4897      H4907   1.082       .  S
C4898      C4903   1.522       .  S
C4898      C4899   1.419       .  A
C4899      C4900   1.418       .  A
C4899      C4904   1.520       .  S
C4900      C4901   1.415       .  A
C4900      H4905   1.082       .  S
C4901      C4902   1.427       .  A
C4902      C4906   1.515       .  S
C4903      C4908   1.419       .  A
C4903      C4912   1.410       .  A
C4904      F4920   1.382       .  S
C4904      F4921   1.383       .  S
C4904      F4922   1.385       .  S
C4906      F4917   1.385       .  S
C4906      F4918   1.382       .  S
C4906      F4919   1.383       .  S
C4908      C4909   1.415       .  A
C4908      C4913   1.520       .  S
C4909      C4910   1.416       .  A
C4909      H4914   1.082       .  S
C4910      C4911   1.428       .  A
C4911      C4912   1.427       .  A
C4911      C4915   1.516       .  S
C4912      H4916   1.082       .  S
C4913      F4926   1.385       .  S
C4913      F4927   1.382       .  S
C4913      F4928   1.383       .  S
C4915      F4923   1.382       .  S
C4915      F4924   1.384       .  S
C4915      F4925   1.384       .  S
C4929      C4930   1.406       .  A
C4929      C4934   1.405       .  A
C4929      H4939   1.083       .  S
C4930      C4935   1.471       .  S
C4930      C4931   1.411       .  A
C4931      C4932   1.397       .  A
C4931      C4936   1.516       .  S
C4932      C4933   1.403       .  A
C4932      H4937   1.086       .  S
C4933      C4934   1.409       .  A
C4934      C4938   1.515       .  S
C4935      C4940   1.410       .  A
C4935      C4944   1.404       .  A
C4936      F4952   1.383       .  S
C4936      F4953   1.383       .  S
C4936      F4954   1.383       .  S
C4938      F4949   1.383       .  S
C4938      F4950   1.385       .  S
C4938      F4951   1.383       .  S
C4940      C4941   1.400       .  A
C4940      C4945   1.516       .  S
C4941      C4942   1.404       .  A
C4941      H4946   1.084       .  S
C4942      C4943   1.410       .  A
C4943      C4944   1.402       .  A
C4943      C4947   1.516       .  S
C4944      H4948   1.084       .  S
C4945      F4958   1.385       .  S
C4945      F4959   1.382       .  S
C4945      F4960   1.383       .  S
C4947      F4955   1.383       .  S
C4947      F4956   1.382       .  S
C4947      F4957   1.384       .  S
C4961      C4962   1.400       .  A
C4961      C4966   1.398       .  A
C4961      H4971   1.084       .  S
C4962      C4967   1.468       .  S
C4962      C4963   1.416       .  A
C4963      C4964   1.398       .  A
C4963      C4968   1.517       .  S
C4964      C4965   1.398       .  A
C4964      H4969   1.084       .  S
C4965      C4966   1.413       .  A
C4966      C4970   1.516       .  S
C4967      C4972   1.410       .  A
C4967      C4976   1.400       .  A
C4968      F4984   1.382       .  S
C4968      F4985   1.381       .  S
C4968      F4986   1.385       .  S
C4970      F4981   1.384       .  S
C4970      F4982   1.382       .  S
C4970      F4983   1.384       .  S
C4972      C4973   1.406       .  A
C4972      C4977   1.518       .  S
C4973      C4974   1.405       .  A
C4973      H4978   1.083       .  S
C4974      C4975   1.413       .  A
C4975      C4976   1.396       .  A
C4975      C4979   1.518       .  S
C4976      H4980   1.085       .  S
C4977      F4990   1.384       .  S
C4977      F4991   1.382       .  S
C4977      F4992   1.383       .  S
C4979      F4987   1.384       .  S
C4979      F4988   1.382       .  S
C4979      F4989   1.383       .  S
C4993      C4994   1.408       .  A
C4993      C4998   1.415       .  A
C4993      H5003   1.083       .  S
C4994      C4999   1.493   1_455  S
C4994      C4995   1.413   1_545  A
C4995      C4996   1.407       .  A
C4995      C5000   1.521   1_455  S
C4996      C4997   1.408       .  A
C4996      H5001   1.081       .  S
C4997      C4998   1.414   1_565  A
C4998      C5002   1.513       .  S
C4999      C5004   1.412       .  A
C4999      C5008   1.406       .  A
C5000      F5016   1.383       .  S
C5000      F5017   1.382   1_565  S
C5000      F5018   1.384       .  S
C5002      F5013   1.384       .  S
C5002      F5014   1.383   1_545  S
C5002      F5015   1.382       .  S
C5004      C5005   1.407       .  A
C5004      C5009   1.522       .  S
C5005      C5006   1.415       .  A
C5005      H5010   1.083       .  S
C5006      C5007   1.420       .  A
C5007      C5008   1.417       .  A
C5007      C5011   1.514   1_545  S
C5008      H5012   1.083   1_545  S
C5009      F5022   1.384       .  S
C5009      F5023   1.383   1_655  S
C5009      F5024   1.382       .  S
C5011      F5019   1.385       .  S
C5011      F5020   1.383   1_565  S
C5011      F5021   1.382       .  S
C5025      C5026   1.407   1_545  A
C5025      C5030   1.421       .  A
C5025      H5035   1.082       .  S
C5026      C5031   1.506       .  S
C5026      C5027   1.417       .  A
C5027      C5028   1.408       .  A
C5027      C5032   1.522       .  S
C5028      C5029   1.412       .  A
C5028      H5033   1.082       .  S
C5029      C5030   1.427   1_565  A
C5030      C5034   1.517       .  S
C5031      C5036   1.419       .  A
C5031      C5040   1.408   1_565  A
C5032      F5048   1.382       .  S
C5032      F5049   1.383       .  S
C5032      F5050   1.385       .  S
C5034      F5045   1.385       .  S
C5034      F5046   1.383       .  S
C5034      F5047   1.382       .  S
C5036      C5037   1.410       .  A
C5036      C5041   1.520       .  S
C5037      C5038   1.407       .  A
C5037      H5042   1.083       .  S
C5038      C5039   1.421   1_565  A
C5039      C5040   1.418       .  A
C5039      C5043   1.517       .  S
C5040      H5044   1.083       .  S
C5041      F5054   1.385       .  S
C5041      F5055   1.382       .  S
C5041      F5056   1.383       .  S
C5043      F5051   1.382       .  S
C5043      F5052   1.383   1_545  S
C5043      F5053   1.385       .  S
C5057      C5058   1.398       .  A
C5057      C5062   1.393       .  A
C5057      H5067   1.084       .  S
C5058      C5063   1.461       .  S
C5058      C5059   1.408       .  A
C5059      C5060   1.404       .  A
C5059      C5064   1.517       .  S
C5060      C5061   1.404       .  A
C5060      H5065   1.082       .  S
C5061      C5062   1.410       .  A
C5062      C5066   1.517       .  S
C5063      C5068   1.418       .  A
C5063      C5072   1.397       .  A
C5064      F5080   1.383       .  S
C5064      F5081   1.382       .  S
C5064      F5082   1.384       .  S
C5066      F5077   1.385       .  S
C5066      F5078   1.382       .  S
C5066      F5079   1.381       .  S
C5068      C5069   1.395       .  A
C5068      C5073   1.522       .  S
C5069      C5070   1.396       .  A
C5069      H5074   1.084       .  S
C5070      C5071   1.417       .  A
C5071      C5072   1.399       .  A
C5071      C5075   1.516       .  S
C5072      H5076   1.085       .  S
C5073      F5086   1.382       .  S
C5073      F5087   1.382       .  S
C5073      F5088   1.378       .  S
C5075      F5083   1.384       .  S
C5075      F5084   1.383       .  S
C5075      F5085   1.382       .  S
C5089      C5090   1.406       .  A
C5089      C5094   1.419       .  A
C5089      H5099   1.083       .  S
C5090      C5095   1.509       .  S
C5090      C5091   1.418   1_455  A
C5091      C5092   1.415       .  A
C5091      C5096   1.520       .  S
C5092      C5093   1.412       .  A
C5092      H5097   1.083       .  S
C5093      C5094   1.425   1_655  A
C5094      C5098   1.517       .  S
C5095      C5100   1.415       .  A
C5095      C5104   1.407       .  A
C5096      F5112   1.382       .  S
C5096      F5113   1.383       .  S
C5096      F5114   1.385       .  S
C5098      F5109   1.384       .  S
C5098      F5110   1.381       .  S
C5098      F5111   1.383       .  S
C5100      C5101   1.410       .  A
C5100      C5105   1.522       .  S
C5101      C5102   1.418       .  A
C5101      H5106   1.081       .  S
C5102      C5103   1.429       .  A
C5103      C5104   1.423       .  A
C5103      C5107   1.516       .  S
C5104      H5108   1.082       .  S
C5105      F5118   1.385       .  S
C5105      F5119   1.382       .  S
C5105      F5120   1.383       .  S
C5107      F5115   1.383       .  S
C5107      F5116   1.383       .  S
C5107      F5117   1.385       .  S
C5121      C5122   1.405       .  A
C5121      C5126   1.401   1_655  A
C5121      H5131   1.083       .  S
C5122      C5127   1.470       .  S
C5122      C5123   1.413       .  A
C5123      C5124   1.398       .  A
C5123      C5128   1.517       .  S
C5124      C5125   1.402   1_655  A
C5124      H5129   1.085       .  S
C5125      C5126   1.409       .  A
C5126      C5130   1.516       .  S
C5127      C5132   1.410       .  A
C5127      C5136   1.403       .  A
C5128      F5144   1.383       .  S
C5128      F5145   1.383       .  S
C5128      F5146   1.383       .  S
C5130      F5141   1.384       .  S
C5130      F5142   1.383       .  S
C5130      F5143   1.382       .  S
C5132      C5133   1.400       .  A
C5132      C5137   1.516       .  S
C5133      C5134   1.406       .  A
C5133      H5138   1.084       .  S
C5134      C5135   1.413       .  A
C5135      C5136   1.400       .  A
C5135      C5139   1.519       .  S
C5136      H5140   1.083       .  S
C5137      F5150   1.384       .  S
C5137      F5151   1.383       .  S
C5137      F5152   1.384       .  S
C5139      F5147   1.384       .  S
C5139      F5148   1.382       .  S
C5139      F5149   1.385       .  S
C5153      C5154   1.409       .  A
C5153      C5158   1.422       .  A
C5153      H5163   1.083       .  S
C5154      C5159   1.530       .  S
C5154      C5155   1.424       .  A
C5155      C5156   1.428       .  A
C5155      C5160   1.518       .  S
C5156      C5157   1.413       .  A
C5156      H5161   1.083       .  S
C5157      C5158   1.421       .  A
C5158      C5162   1.517       .  S
C5159      C5164   1.425       .  A
C5159      C5168   1.409       .  A
C5160      F5176   1.382       .  S
C5160      F5177   1.383       .  S
C5160      F5178   1.384       .  S
C5162      F5173   1.384       .  S
C5162      F5174   1.383       .  S
C5162      F5175   1.382       .  S
C5164      C5165   1.425       .  A
C5164      C5169   1.518       .  S
C5165      C5166   1.409       .  A
C5165      H5170   1.083       .  S
C5166      C5167   1.422       .  A
C5167      C5168   1.425       .  A
C5167      C5171   1.514       .  S
C5168      H5172   1.082       .  S
C5169      F5182   1.384       .  S
C5169      F5183   1.381       .  S
C5169      F5184   1.383       .  S
C5171      F5179   1.384       .  S
C5171      F5180   1.384       .  S
C5171      F5181   1.380       .  S
